# generated using pymatgen
data_C
_symmetry_space_group_name_H-M   'P 1'
_cell_length_a   3.46786855
_cell_length_b   3.46786855
_cell_length_c   5.71996089
_cell_angle_alpha   90.00000001
_cell_angle_beta   90.00000003
_cell_angle_gamma   70.23838049
_symmetry_Int_Tables_number   1
_chemical_formula_structural   C
_chemical_formula_sum   C8
_cell_volume   64.73773982
_cell_formula_units_Z   8
loop_
 _symmetry_equiv_pos_site_id
 _symmetry_equiv_pos_as_xyz
  1  'x, y, z'
loop_
 _atom_site_type_symbol
 _atom_site_label
 _atom_site_symmetry_multiplicity
 _atom_site_fract_x
 _atom_site_fract_y
 _atom_site_fract_z
 _atom_site_occupancy
  C  C1  1  0.258036  0.496697  -0.073767  1
  C  C2  1  0.258036  0.496697  0.677865  1
  C  C3  1  0.632962  0.371622  0.552049  1
  C  C4  1  0.632962  0.371622  0.052049  1
  C  C5  1  0.758037  0.996695  0.177865  1
  C  C6  1  0.758037  0.996695  0.426232  1
  C  C7  1  0.883112  0.621770  0.552049  1
  C  C8  1  0.883112  0.621770  0.052049  1
