# generated using pymatgen
data_C
_symmetry_space_group_name_H-M   'P 1'
_cell_length_a   4.67895089
_cell_length_b   4.64799670
_cell_length_c   4.64830476
_cell_angle_alpha   96.53594531
_cell_angle_beta   100.43662711
_cell_angle_gamma   112.38005804
_symmetry_Int_Tables_number   1
_chemical_formula_structural   C
_chemical_formula_sum   C10
_cell_volume   90.05300139
_cell_formula_units_Z   10
loop_
 _symmetry_equiv_pos_site_id
 _symmetry_equiv_pos_as_xyz
  1  'x, y, z'
loop_
 _atom_site_type_symbol
 _atom_site_label
 _atom_site_symmetry_multiplicity
 _atom_site_fract_x
 _atom_site_fract_y
 _atom_site_fract_z
 _atom_site_occupancy
  C  C1  1  0.918209  0.517930  0.380323  1
  C  C2  1  0.936275  0.754688  0.613480  1
  C  C3  1  0.025764  0.064474  0.547537  1
  C  C4  1  0.828721  0.208145  0.446266  1
  C  C5  1  0.364087  0.190520  0.607875  1
  C  C6  1  0.490397  0.082098  0.385928  1
  C  C7  1  0.825217  0.518567  0.066079  1
  C  C8  1  0.029269  0.754051  0.927723  1
  C  C9  1  0.337349  0.017553  0.078319  1
  C  C10  1  0.517135  0.255065  0.915483  1
