# generated using pymatgen
data_C
_symmetry_space_group_name_H-M   'P 1'
_cell_length_a   4.76973840
_cell_length_b   4.78957813
_cell_length_c   6.22533485
_cell_angle_alpha   71.66715125
_cell_angle_beta   72.85791986
_cell_angle_gamma   62.09284529
_symmetry_Int_Tables_number   1
_chemical_formula_structural   C
_chemical_formula_sum   C13
_cell_volume   117.44085010
_cell_formula_units_Z   13
loop_
 _symmetry_equiv_pos_site_id
 _symmetry_equiv_pos_as_xyz
  1  'x, y, z'
loop_
 _atom_site_type_symbol
 _atom_site_label
 _atom_site_symmetry_multiplicity
 _atom_site_fract_x
 _atom_site_fract_y
 _atom_site_fract_z
 _atom_site_occupancy
  C  C1  1  0.435125  0.844458  0.584027  1
  C  C2  1  0.240399  0.681252  0.625799  1
  C  C3  1  0.025134  0.595338  0.578456  1
  C  C4  1  0.700105  0.708304  0.700019  1
  C  C5  1  0.654988  0.694674  0.939030  1
  C  C6  1  0.894049  0.932930  0.133545  1
  C  C7  1  0.076454  0.117857  0.063879  1
  C  C8  1  0.554260  0.056949  0.175484  1
  C  C9  1  0.134132  0.427079  0.398276  1
  C  C10  1  0.384888  0.116812  0.397694  1
  C  C11  1  0.019219  0.590370  0.187174  1
  C  C12  1  0.916508  0.456948  0.062805  1
  C  C13  1  0.420221  0.963565  0.044710  1
