# generated using pymatgen
data_C
_symmetry_space_group_name_H-M   'P 1'
_cell_length_a   4.19524048
_cell_length_b   4.19524047
_cell_length_c   5.52817904
_cell_angle_alpha   64.65272652
_cell_angle_beta   64.65272652
_cell_angle_gamma   82.63169728
_symmetry_Int_Tables_number   1
_chemical_formula_structural   C
_chemical_formula_sum   C9
_cell_volume   79.28389088
_cell_formula_units_Z   9
loop_
 _symmetry_equiv_pos_site_id
 _symmetry_equiv_pos_as_xyz
  1  'x, y, z'
loop_
 _atom_site_type_symbol
 _atom_site_label
 _atom_site_symmetry_multiplicity
 _atom_site_fract_x
 _atom_site_fract_y
 _atom_site_fract_z
 _atom_site_occupancy
  C  C1  1  0.016120  0.950952  0.422560  1
  C  C2  1  -0.021971  0.660890  0.693643  1
  C  C3  1  0.306182  0.989041  0.151478  1
  C  C4  1  0.402760  0.336848  0.922560  1
  C  C5  1  0.516865  0.450207  0.422560  1
  C  C6  1  0.497885  0.683198  0.151478  1
  C  C7  1  0.766492  0.200579  0.422560  1
  C  C8  1  0.283871  0.469186  0.693643  1
  C  C9  1  0.630222  0.564311  0.922560  1
