# generated using pymatgen
data_C
_symmetry_space_group_name_H-M   'P 1'
_cell_length_a   2.49366186
_cell_length_b   2.60191756
_cell_length_c   10.51515751
_cell_angle_alpha   89.43750100
_cell_angle_beta   90.00000000
_cell_angle_gamma   118.63296597
_symmetry_Int_Tables_number   1
_chemical_formula_structural   C
_chemical_formula_sum   C10
_cell_volume   59.87830133
_cell_formula_units_Z   10
loop_
 _symmetry_equiv_pos_site_id
 _symmetry_equiv_pos_as_xyz
  1  'x, y, z'
loop_
 _atom_site_type_symbol
 _atom_site_label
 _atom_site_symmetry_multiplicity
 _atom_site_fract_x
 _atom_site_fract_y
 _atom_site_fract_z
 _atom_site_occupancy
  C  C1  1  0.093137  0.815135  0.217649  1
  C  C2  1  0.592255  0.813369  0.284578  1
  C  C3  1  0.589692  0.808243  0.420340  1
  C  C4  1  0.088807  0.806473  0.487269  1
  C  C5  1  0.757530  0.143920  0.681410  1
  C  C6  1  0.088033  0.804926  0.631150  1
  C  C7  1  0.093911  0.816682  0.073767  1
  C  C8  1  0.756772  0.142404  0.827506  1
  C  C9  1  0.425173  0.479206  0.877412  1
  C  C10  1  0.424416  0.477692  0.023508  1
