# generated using pymatgen
data_C
_symmetry_space_group_name_H-M   'P 1'
_cell_length_a   3.38398927
_cell_length_b   3.38398927
_cell_length_c   5.41628032
_cell_angle_alpha   90.00000000
_cell_angle_beta   90.00000000
_cell_angle_gamma   90.00000000
_symmetry_Int_Tables_number   1
_chemical_formula_structural   C
_chemical_formula_sum   C8
_cell_volume   62.02390229
_cell_formula_units_Z   8
loop_
 _symmetry_equiv_pos_site_id
 _symmetry_equiv_pos_as_xyz
  1  'x, y, z'
loop_
 _atom_site_type_symbol
 _atom_site_label
 _atom_site_symmetry_multiplicity
 _atom_site_fract_x
 _atom_site_fract_y
 _atom_site_fract_z
 _atom_site_occupancy
  C  C1  1  0.207604  0.522974  0.016964  1
  C  C2  1  0.505817  0.224762  0.016964  1
  C  C3  1  0.356709  0.873868  0.133586  1
  C  C4  1  0.856711  0.373869  0.900341  1
  C  C5  1  0.707603  0.724763  0.516964  1
  C  C6  1  0.005817  0.022975  0.516964  1
  C  C7  1  0.356709  0.873868  0.400341  1
  C  C8  1  0.856711  0.373869  0.633586  1
