# generated using pymatgen
data_C
_symmetry_space_group_name_H-M   'P 1'
_cell_length_a   3.61798186
_cell_length_b   4.68204705
_cell_length_c   5.26243757
_cell_angle_alpha   86.73641520
_cell_angle_beta   80.60557096
_cell_angle_gamma   68.32541272
_symmetry_Int_Tables_number   1
_chemical_formula_structural   C
_chemical_formula_sum   C10
_cell_volume   81.72902901
_cell_formula_units_Z   10
loop_
 _symmetry_equiv_pos_site_id
 _symmetry_equiv_pos_as_xyz
  1  'x, y, z'
loop_
 _atom_site_type_symbol
 _atom_site_label
 _atom_site_symmetry_multiplicity
 _atom_site_fract_x
 _atom_site_fract_y
 _atom_site_fract_z
 _atom_site_occupancy
  C  C1  1  0.329349  0.818630  0.834250  1
  C  C2  1  0.432508  0.519971  0.738575  1
  C  C3  1  0.496223  0.465136  0.471975  1
  C  C4  1  0.560740  -0.005268  0.886163  1
  C  C5  1  0.332625  0.314035  0.925342  1
  C  C6  1  0.931498  0.916679  0.978986  1
  C  C7  1  0.107388  0.397567  0.180843  1
  C  C8  1  0.858947  0.248187  0.327873  1
  C  C9  1  0.174528  0.620842  0.327623  1
  C  C10  1  0.952678  0.935358  0.253200  1
