# generated using pymatgen
data_C
_symmetry_space_group_name_H-M   'P 1'
_cell_length_a   2.49285521
_cell_length_b   2.60169078
_cell_length_c   10.62442705
_cell_angle_alpha   83.02164469
_cell_angle_beta   83.26270659
_cell_angle_gamma   61.37442690
_symmetry_Int_Tables_number   1
_chemical_formula_structural   C
_chemical_formula_sum   C10
_cell_volume   59.89734907
_cell_formula_units_Z   10
loop_
 _symmetry_equiv_pos_site_id
 _symmetry_equiv_pos_as_xyz
  1  'x, y, z'
loop_
 _atom_site_type_symbol
 _atom_site_label
 _atom_site_symmetry_multiplicity
 _atom_site_fract_x
 _atom_site_fract_y
 _atom_site_fract_z
 _atom_site_occupancy
  C  C1  1  0.924104  0.254542  0.131619  1
  C  C2  1  0.446675  0.276304  0.064713  1
  C  C3  1  0.012275  0.347677  0.862141  1
  C  C4  1  0.491057  0.323212  0.929044  1
  C  C5  1  0.056601  0.402751  0.718415  1
  C  C6  1  0.874217  0.210546  0.275390  1
  C  C7  1  0.449627  0.813353  0.521763  1
  C  C8  1  0.401725  0.763046  0.667874  1
  C  C9  1  0.136359  0.490107  0.471542  1
  C  C10  1  0.186863  0.534985  0.325656  1
