data_image0
_cell_length_a       3.2715
_cell_length_b       4.78312
_cell_length_c       6.71312
_cell_angle_alpha    85.6884
_cell_angle_beta     104.103
_cell_angle_gamma    107.971

_symmetry_space_group_name_H-M    "P 1"
_symmetry_int_tables_number       1

loop_
  _symmetry_equiv_pos_as_xyz
  'x, y, z'

loop_
  _atom_site_label
  _atom_site_occupancy
  _atom_site_fract_x
  _atom_site_fract_y
  _atom_site_fract_z
  _atom_site_thermal_displace_type
  _atom_site_B_iso_or_equiv
  _atom_site_type_symbol
  C1       1.0000 0.52619  0.29294  0.26857  Biso   1.000  C
  C2       1.0000 0.33324  0.46336  0.12572  Biso   1.000  C
  C3       1.0000 0.40466  0.96336  0.26857  Biso   1.000  C
  C4       1.0000 0.45476  0.79294  0.12572  Biso   1.000  C
  C5       1.0000 0.11604  0.62815  0.56980  Biso   1.000  C
  C6       1.0000 0.35593  0.88201  0.47844  Biso   1.000  C
  C7       1.0000 0.63284  0.12815  0.60339  Biso   1.000  C
  C8       1.0000 0.78479  0.37429  0.47844  Biso   1.000  C
  C9       1.0000 0.50350  0.87429  0.91585  Biso   1.000  C
  C10      1.0000 0.74339  0.12815  0.82449  Biso   1.000  C
  C11      1.0000 0.22659  0.62815  0.79090  Biso   1.000  C
  C12      1.0000 0.07464  0.38201  0.91585  Biso   1.000  C
