data_image0
_cell_length_a       3.02478
_cell_length_b       4.48594
_cell_length_c       6.49838
_cell_angle_alpha    89.8979
_cell_angle_beta     87.9323
_cell_angle_gamma    69.3502

_symmetry_space_group_name_H-M    "P 1"
_symmetry_int_tables_number       1

loop_
  _symmetry_equiv_pos_as_xyz
  'x, y, z'

loop_
  _atom_site_label
  _atom_site_occupancy
  _atom_site_fract_x
  _atom_site_fract_y
  _atom_site_fract_z
  _atom_site_thermal_displace_type
  _atom_site_B_iso_or_equiv
  _atom_site_type_symbol
  C1       1.0000 0.93964  0.33818  0.82176  Biso   1.000  C
  C2       1.0000 0.77889  0.55087  0.98846  Biso   1.000  C
  C3       1.0000 0.61079  0.08955  0.16135  Biso   1.000  C
  C4       1.0000 0.44501  0.95188  0.32385  Biso   1.000  C
  C5       1.0000 0.14454  0.36508  0.62198  Biso   1.000  C
  C6       1.0000 0.24038  0.60410  0.52949  Biso   1.000  C
  C7       1.0000 0.12785  0.88201  0.63674  Biso   1.000  C
  C8       1.0000 0.25707  0.08718  0.51474  Biso   1.000  C
  C9       1.0000 0.93991  0.01731  0.82762  Biso   1.000  C
  C10      1.0000 0.77413  0.87964  0.99012  Biso   1.000  C
  C11      1.0000 0.44528  0.63101  0.32971  Biso   1.000  C
  C12      1.0000 0.60603  0.41832  0.16301  Biso   1.000  C
