data_image0
_cell_length_a       2.5217
_cell_length_b       4.85636
_cell_length_c       5.06919
_cell_angle_alpha    83.4339
_cell_angle_beta     90
_cell_angle_gamma    74.9519

_symmetry_space_group_name_H-M    "P 1"
_symmetry_int_tables_number       1

loop_
  _symmetry_equiv_pos_as_xyz
  'x, y, z'

loop_
  _atom_site_label
  _atom_site_occupancy
  _atom_site_fract_x
  _atom_site_fract_y
  _atom_site_fract_z
  _atom_site_thermal_displace_type
  _atom_site_B_iso_or_equiv
  _atom_site_type_symbol
  C1       1.0000 0.80084  0.01913  0.32687  Biso   1.000  C
  C2       1.0000 0.27392  0.07297  0.15469  Biso   1.000  C
  C3       1.0000 0.29528  0.03024  0.85749  Biso   1.000  C
  C4       1.0000 0.66600  0.28880  0.48160  Biso   1.000  C
  C5       1.0000 0.70745  0.20591  0.77032  Biso   1.000  C
  C6       1.0000 0.09953  0.42174  0.09722  Biso   1.000  C
  C7       1.0000 0.57261  0.47558  0.92504  Biso   1.000  C
  C8       1.0000 0.07817  0.46447  0.39442  Biso   1.000  C
  C9       1.0000 0.93739  0.74602  0.53256  Biso   1.000  C
  C10      1.0000 0.43605  0.74869  0.71935  Biso   1.000  C
