# generated using pymatgen
data_C
_symmetry_space_group_name_H-M   'P 1'
_cell_length_a   2.53883366
_cell_length_b   4.83798225
_cell_length_c   5.06571774
_cell_angle_alpha   83.26286670
_cell_angle_beta   90.00000000
_cell_angle_gamma   74.78833813
_symmetry_Int_Tables_number   1
_chemical_formula_structural   C
_chemical_formula_sum   C10
_cell_volume   59.59595400
_cell_formula_units_Z   10
loop_
 _symmetry_equiv_pos_site_id
 _symmetry_equiv_pos_as_xyz
  1  'x, y, z'
loop_
 _atom_site_type_symbol
 _atom_site_label
 _atom_site_symmetry_multiplicity
 _atom_site_fract_x
 _atom_site_fract_y
 _atom_site_fract_z
 _atom_site_occupancy
  C  C1  1  0.802174  0.016452  0.322656  1
  C  C2  1  0.275800  0.069198  0.152189  1
  C  C3  1  0.298692  0.023415  0.857492  1
  C  C4  1  0.663535  0.293729  0.481494  1
  C  C5  1  0.709910  0.200980  0.770418  1
  C  C6  1  0.097643  0.425513  0.099723  1
  C  C7  1  0.571271  0.478257  0.929256  1
  C  C8  1  0.074751  0.471296  0.394420  1
  C  C9  1  0.937291  0.746219  0.527579  1
  C  C10  1  0.436154  0.748491  0.724333  1
