# generated using pymatgen
data_C
_symmetry_space_group_name_H-M   'P 1'
_cell_length_a   3.52933266
_cell_length_b   4.71149021
_cell_length_c   5.42687686
_cell_angle_alpha   107.94818214
_cell_angle_beta   120.96463902
_cell_angle_gamma   80.99856642
_symmetry_Int_Tables_number   1
_chemical_formula_structural   C
_chemical_formula_sum   C8
_cell_volume   73.61388042
_cell_formula_units_Z   8
loop_
 _symmetry_equiv_pos_site_id
 _symmetry_equiv_pos_as_xyz
  1  'x, y, z'
loop_
 _atom_site_type_symbol
 _atom_site_label
 _atom_site_symmetry_multiplicity
 _atom_site_fract_x
 _atom_site_fract_y
 _atom_site_fract_z
 _atom_site_occupancy
  C  C1  1  0.287751  0.498661  0.293765  1
  C  C2  1  0.099385  0.687028  0.105399  1
  C  C3  1  0.881129  0.565308  0.793846  1
  C  C4  1  0.127809  -0.001419  0.227119  1
  C  C5  1  0.411032  0.562429  0.607147  1
  C  C6  1  0.109613  0.419174  0.633168  1
  C  C7  1  0.414085  0.185278  0.229997  1
  C  C8  1  0.884780  0.159257  0.373250  1
