# generated using pymatgen
data_C
_symmetry_space_group_name_H-M   'P 1'
_cell_length_a   4.06095744
_cell_length_b   4.06095744
_cell_length_c   5.73072276
_cell_angle_alpha   96.42909839
_cell_angle_beta   96.42909843
_cell_angle_gamma   105.97765035
_symmetry_Int_Tables_number   1
_chemical_formula_structural   C
_chemical_formula_sum   C10
_cell_volume   89.27092171
_cell_formula_units_Z   10
loop_
 _symmetry_equiv_pos_site_id
 _symmetry_equiv_pos_as_xyz
  1  'x, y, z'
loop_
 _atom_site_type_symbol
 _atom_site_label
 _atom_site_symmetry_multiplicity
 _atom_site_fract_x
 _atom_site_fract_y
 _atom_site_fract_z
 _atom_site_occupancy
  C  C1  1  0.043141  0.139997  0.386078  1
  C  C2  1  0.262797  0.920343  0.386078  1
  C  C3  1  0.503064  0.921094  0.836430  1
  C  C4  1  0.262046  0.680075  0.935728  1
  C  C5  1  0.864102  0.183365  0.575203  1
  C  C6  1  0.012550  0.373794  0.803386  1
  C  C7  1  0.809346  0.170589  0.968770  1
  C  C8  1  -0.000226  0.319037  0.196952  1
  C  C9  1  0.517959  0.964968  0.585360  1
  C  C10  1  0.218170  0.665179  0.186795  1
