data_image0
_cell_length_a       3.90529
_cell_length_b       3.90529
_cell_length_c       5.92028
_cell_angle_alpha    96.7789
_cell_angle_beta     96.7789
_cell_angle_gamma    102.938

_symmetry_space_group_name_H-M    "P 1"
_symmetry_int_tables_number       1

loop_
  _symmetry_equiv_pos_as_xyz
  'x, y, z'

loop_
  _atom_site_label
  _atom_site_occupancy
  _atom_site_fract_x
  _atom_site_fract_y
  _atom_site_fract_z
  _atom_site_thermal_displace_type
  _atom_site_B_iso_or_equiv
  _atom_site_type_symbol
  C1       1.0000 0.04240  0.14074  0.38608  Biso   1.000  C
  C2       1.0000 0.27022  0.91292  0.38608  Biso   1.000  C
  C3       1.0000 0.50262  0.92135  0.83612  Biso   1.000  C
  C4       1.0000 0.26179  0.68052  0.93604  Biso   1.000  C
  C5       1.0000 0.86996  0.19370  0.58982  Biso   1.000  C
  C6       1.0000 0.99088  0.38375  0.80808  Biso   1.000  C
  C7       1.0000 0.79939  0.19226  0.96407  Biso   1.000  C
  C8       1.0000 0.98943  0.31318  0.18233  Biso   1.000  C
  C9       1.0000 0.52591  0.94280  0.59867  Biso   1.000  C
  C10      1.0000 0.24034  0.65723  0.17348  Biso   1.000  C
