# generated using pymatgen
data_C
_symmetry_space_group_name_H-M   'P 1'
_cell_length_a   4.18916148
_cell_length_b   4.21199916
_cell_length_c   4.80812203
_cell_angle_alpha   90.00000000
_cell_angle_beta   90.00000000
_cell_angle_gamma   97.36597892
_symmetry_Int_Tables_number   1
_chemical_formula_structural   C
_chemical_formula_sum   C9
_cell_volume   84.13795591
_cell_formula_units_Z   9
loop_
 _symmetry_equiv_pos_site_id
 _symmetry_equiv_pos_as_xyz
  1  'x, y, z'
loop_
 _atom_site_type_symbol
 _atom_site_label
 _atom_site_symmetry_multiplicity
 _atom_site_fract_x
 _atom_site_fract_y
 _atom_site_fract_z
 _atom_site_occupancy
  C  C1  1  0.000083  0.330845  0.392421  1
  C  C2  1  0.851867  0.209602  0.643087  1
  C  C3  1  0.824930  0.386966  0.892421  1
  C  C4  1  0.738656  0.702117  0.892421  1
  C  C5  1  0.281792  0.544541  0.392421  1
  C  C6  1  0.563503  0.758238  0.392421  1
  C  C7  1  0.711719  0.879480  0.141754  1
  C  C8  1  0.711719  0.879480  0.643087  1
  C  C9  1  0.851867  0.209602  0.141754  1
