# generated using pymatgen
data_C
_symmetry_space_group_name_H-M   'P 1'
_cell_length_a   3.87897255
_cell_length_b   4.95863892
_cell_length_c   4.85722753
_cell_angle_alpha   89.99999964
_cell_angle_beta   89.99999954
_cell_angle_gamma   78.27200538
_symmetry_Int_Tables_number   1
_chemical_formula_structural   C
_chemical_formula_sum   C10
_cell_volume   91.47557816
_cell_formula_units_Z   10
loop_
 _symmetry_equiv_pos_site_id
 _symmetry_equiv_pos_as_xyz
  1  'x, y, z'
loop_
 _atom_site_type_symbol
 _atom_site_label
 _atom_site_symmetry_multiplicity
 _atom_site_fract_x
 _atom_site_fract_y
 _atom_site_fract_z
 _atom_site_occupancy
  C  C1  1  0.672330  0.916770  0.001351  1
  C  C2  1  0.431647  0.158467  0.001351  1
  C  C3  1  0.293656  0.296489  0.249241  1
  C  C4  1  0.810321  0.778747  0.753461  1
  C  C5  1  0.810321  0.778747  0.249241  1
  C  C6  1  0.293656  0.296489  0.753461  1
  C  C7  1  0.683480  0.905446  0.501352  1
  C  C8  1  0.420496  0.169791  0.501352  1
  C  C9  1  0.051989  0.537618  0.157593  1
  C  C10  1  0.051989  0.537618  0.845108  1
