# generated using pymatgen
data_C
_symmetry_space_group_name_H-M   'P 1'
_cell_length_a   3.57857165
_cell_length_b   4.69754263
_cell_length_c   5.86415388
_cell_angle_alpha   103.41427304
_cell_angle_beta   103.14398949
_cell_angle_gamma   103.79891024
_symmetry_Int_Tables_number   1
_chemical_formula_structural   C
_chemical_formula_sum   C11
_cell_volume   88.85357001
_cell_formula_units_Z   11
loop_
 _symmetry_equiv_pos_site_id
 _symmetry_equiv_pos_as_xyz
  1  'x, y, z'
loop_
 _atom_site_type_symbol
 _atom_site_label
 _atom_site_symmetry_multiplicity
 _atom_site_fract_x
 _atom_site_fract_y
 _atom_site_fract_z
 _atom_site_occupancy
  C  C1  1  0.634621  0.741134  0.649097  1
  C  C2  1  -0.015948  0.857646  0.584621  1
  C  C3  1  0.961312  0.938769  0.362702  1
  C  C4  1  0.490999  0.418681  0.608882  1
  C  C5  1  0.543130  0.295746  0.808333  1
  C  C6  1  0.430430  0.930466  0.019657  1
  C  C7  1  0.637629  0.764498  0.145566  1
  C  C8  1  0.531760  0.444770  0.052175  1
  C  C9  1  0.401948  0.215336  0.164734  1
  C  C10  1  0.269747  0.206734  0.371919  1
  C  C11  1  0.406089  0.938045  0.757362  1
