data_image0
_cell_length_a       3.29952
_cell_length_b       4.78332
_cell_length_c       6.08173
_cell_angle_alpha    104.277
_cell_angle_beta     103.217
_cell_angle_gamma    102.82

_symmetry_space_group_name_H-M    "P 1"
_symmetry_int_tables_number       1

loop_
  _symmetry_equiv_pos_as_xyz
  'x, y, z'

loop_
  _atom_site_label
  _atom_site_occupancy
  _atom_site_fract_x
  _atom_site_fract_y
  _atom_site_fract_z
  _atom_site_thermal_displace_type
  _atom_site_B_iso_or_equiv
  _atom_site_type_symbol
  C1       1.0000 0.60503  0.73016  0.64301  Biso   1.000  C
  C2       1.0000 0.96192  0.85336  0.56402  Biso   1.000  C
  C3       1.0000 0.97670  0.93677  0.36445  Biso   1.000  C
  C4       1.0000 0.49338  0.41404  0.62108  Biso   1.000  C
  C5       1.0000 0.49889  0.29159  0.81019  Biso   1.000  C
  C6       1.0000 0.42935  0.93966  0.01705  Biso   1.000  C
  C7       1.0000 0.62658  0.76755  0.13751  Biso   1.000  C
  C8       1.0000 0.53358  0.44364  0.04842  Biso   1.000  C
  C9       1.0000 0.44161  0.22584  0.16994  Biso   1.000  C
  C10      1.0000 0.32844  0.20229  0.38184  Biso   1.000  C
  C11      1.0000 0.39623  0.94694  0.76755  Biso   1.000  C
