# generated using pymatgen
data_C
_symmetry_space_group_name_H-M   'P 1'
_cell_length_a   3.50935153
_cell_length_b   5.13633844
_cell_length_c   4.81106038
_cell_angle_alpha   108.45426385
_cell_angle_beta   105.59850839
_cell_angle_gamma   115.55478692
_symmetry_Int_Tables_number   1
_chemical_formula_structural   C
_chemical_formula_sum   C8
_cell_volume   65.35603478
_cell_formula_units_Z   8
loop_
 _symmetry_equiv_pos_site_id
 _symmetry_equiv_pos_as_xyz
  1  'x, y, z'
loop_
 _atom_site_type_symbol
 _atom_site_label
 _atom_site_symmetry_multiplicity
 _atom_site_fract_x
 _atom_site_fract_y
 _atom_site_fract_z
 _atom_site_occupancy
  C  C1  1  0.818891  0.110474  0.849941  1
  C  C2  1  0.516297  0.807880  0.547346  1
  C  C3  1  0.312242  0.307332  0.959068  1
  C  C4  1  0.631527  0.219601  0.046800  1
  C  C5  1  0.436034  0.608704  0.958376  1
  C  C6  1  0.808415  0.218909  0.348171  1
  C  C7  1  0.580987  0.871719  0.281418  1
  C  C8  1  0.249516  0.541950  0.611186  1
