# generated using pymatgen
data_C
_symmetry_space_group_name_H-M   'P 1'
_cell_length_a   3.37447679
_cell_length_b   3.37447679
_cell_length_c   5.46901886
_cell_angle_alpha   90.00000000
_cell_angle_beta   90.00000000
_cell_angle_gamma   90.00000000
_symmetry_Int_Tables_number   1
_chemical_formula_structural   C
_chemical_formula_sum   C8
_cell_volume   62.27622975
_cell_formula_units_Z   8
loop_
 _symmetry_equiv_pos_site_id
 _symmetry_equiv_pos_as_xyz
  1  'x, y, z'
loop_
 _atom_site_type_symbol
 _atom_site_label
 _atom_site_symmetry_multiplicity
 _atom_site_fract_x
 _atom_site_fract_y
 _atom_site_fract_z
 _atom_site_occupancy
  C  C1  1  0.813003  0.876974  0.007418  1
  C  C2  1  0.663125  0.227096  0.889704  1
  C  C3  1  0.513247  0.876974  0.507418  1
  C  C4  1  0.663125  0.227096  0.625132  1
  C  C5  1  0.163125  0.727096  0.125131  1
  C  C6  1  0.163125  0.727096  0.389704  1
  C  C7  1  0.513247  0.577218  0.007418  1
  C  C8  1  0.813003  0.577218  0.507418  1
