# generated using pymatgen
data_C
_symmetry_space_group_name_H-M   'P 1'
_cell_length_a   3.72659761
_cell_length_b   5.31971230
_cell_length_c   5.11710556
_cell_angle_alpha   63.04009891
_cell_angle_beta   71.61714006
_cell_angle_gamma   74.87982502
_symmetry_Int_Tables_number   1
_chemical_formula_structural   C
_chemical_formula_sum   C11
_cell_volume   84.96794806
_cell_formula_units_Z   11
loop_
 _symmetry_equiv_pos_site_id
 _symmetry_equiv_pos_as_xyz
  1  'x, y, z'
loop_
 _atom_site_type_symbol
 _atom_site_label
 _atom_site_symmetry_multiplicity
 _atom_site_fract_x
 _atom_site_fract_y
 _atom_site_fract_z
 _atom_site_occupancy
  C  C1  1  0.208482  0.569956  0.836874  1
  C  C2  1  0.125142  0.830789  0.868712  1
  C  C3  1  0.081197  0.505981  0.642533  1
  C  C4  1  0.817101  0.306069  0.770906  1
  C  C5  1  0.920483  0.077368  0.679856  1
  C  C6  1  0.874144  0.145289  0.387060  1
  C  C7  1  0.232517  0.835154  0.114929  1
  C  C8  1  0.312085  0.562556  0.347477  1
  C  C9  1  0.465880  0.314710  1.012957  1
  C  C10  1  0.558936  0.340838  0.266186  1
  C  C11  1  0.204810  0.079488  0.171740  1
