# generated using pymatgen
data_C
_symmetry_space_group_name_H-M   'P 1'
_cell_length_a   2.53849167
_cell_length_b   4.30505173
_cell_length_c   5.66287285
_cell_angle_alpha   104.33416585
_cell_angle_beta   90.00000000
_cell_angle_gamma   90.00000000
_symmetry_Int_Tables_number   1
_chemical_formula_structural   C
_chemical_formula_sum   C10
_cell_volume   59.95917686
_cell_formula_units_Z   10
loop_
 _symmetry_equiv_pos_site_id
 _symmetry_equiv_pos_as_xyz
  1  'x, y, z'
loop_
 _atom_site_type_symbol
 _atom_site_label
 _atom_site_symmetry_multiplicity
 _atom_site_fract_x
 _atom_site_fract_y
 _atom_site_fract_z
 _atom_site_occupancy
  C  C1  1  0.601058  0.030393  0.837216  1
  C  C2  1  0.101059  0.174344  0.759171  1
  C  C3  1  0.601058  0.668478  0.776787  1
  C  C4  1  0.101059  0.216976  0.498097  1
  C  C5  1  0.601058  0.122159  0.120411  1
  C  C6  1  0.601058  0.496605  0.251137  1
  C  C7  1  0.101059  0.640555  0.173092  1
  C  C8  1  0.101059  0.002471  0.233521  1
  C  C9  1  0.601058  0.453973  0.512210  1
  C  C10  1  0.101059  0.548791  0.889897  1
