data_image0
_cell_length_a       2.51941
_cell_length_b       4.33761
_cell_length_c       5.65573
_cell_angle_alpha    105.012
_cell_angle_beta     90
_cell_angle_gamma    90

_symmetry_space_group_name_H-M    "P 1"
_symmetry_int_tables_number       1

loop_
  _symmetry_equiv_pos_as_xyz
  'x, y, z'

loop_
  _atom_site_label
  _atom_site_occupancy
  _atom_site_fract_x
  _atom_site_fract_y
  _atom_site_fract_z
  _atom_site_thermal_displace_type
  _atom_site_B_iso_or_equiv
  _atom_site_type_symbol
  C1       1.0000 0.60106  0.03072  0.84225  Biso   1.000  C
  C2       1.0000 0.10106  0.17737  0.76119  Biso   1.000  C
  C3       1.0000 0.60106  0.66438  0.77490  Biso   1.000  C
  C4       1.0000 0.10106  0.22788  0.50185  Biso   1.000  C
  C5       1.0000 0.60106  0.12630  0.12520  Biso   1.000  C
  C6       1.0000 0.60106  0.49358  0.24912  Biso   1.000  C
  C7       1.0000 0.10106  0.64023  0.16806  Biso   1.000  C
  C8       1.0000 0.10106  0.00657  0.23541  Biso   1.000  C
  C9       1.0000 0.60106  0.44307  0.50846  Biso   1.000  C
  C10      1.0000 0.10106  0.54465  0.88511  Biso   1.000  C
