data_image0
_cell_length_a       3.34751
_cell_length_b       3.75608
_cell_length_c       5.61726
_cell_angle_alpha    86.9223
_cell_angle_beta     72.6645
_cell_angle_gamma    79.6192

_symmetry_space_group_name_H-M    "P 1"
_symmetry_int_tables_number       1

loop_
  _symmetry_equiv_pos_as_xyz
  'x, y, z'

loop_
  _atom_site_label
  _atom_site_occupancy
  _atom_site_fract_x
  _atom_site_fract_y
  _atom_site_fract_z
  _atom_site_thermal_displace_type
  _atom_site_B_iso_or_equiv
  _atom_site_type_symbol
  C1       1.0000 0.32146  0.52474  0.96098  Biso   1.000  C
  C2       1.0000 0.19288  0.52474  0.21814  Biso   1.000  C
  C3       1.0000 0.38185  0.84514  0.79706  Biso   1.000  C
  C4       1.0000 0.42498  0.20434  0.79706  Biso   1.000  C
  C5       1.0000 0.42573  0.71080  0.54668  Biso   1.000  C
  C6       1.0000 0.22075  0.83092  0.37045  Biso   1.000  C
  C7       1.0000 0.63148  0.33868  0.54668  Biso   1.000  C
  C8       1.0000 0.01270  0.21856  0.37045  Biso   1.000  C
