data_image0
_cell_length_a       3.59153
_cell_length_b       4.746
_cell_length_c       4.74599
_cell_angle_alpha    103.691
_cell_angle_beta     105.796
_cell_angle_gamma    106.475

_symmetry_space_group_name_H-M    "P 1"
_symmetry_int_tables_number       1

loop_
  _symmetry_equiv_pos_as_xyz
  'x, y, z'

loop_
  _atom_site_label
  _atom_site_occupancy
  _atom_site_fract_x
  _atom_site_fract_y
  _atom_site_fract_z
  _atom_site_thermal_displace_type
  _atom_site_B_iso_or_equiv
  _atom_site_type_symbol
  C1       1.0000 0.35441  0.67103  0.07264  Biso   1.000  C
  C2       1.0000 0.35174  0.91177  0.31339  Biso   1.000  C
  C3       1.0000 0.35248  0.22476  0.30911  Biso   1.000  C
  C4       1.0000 0.35367  0.35803  0.07692  Biso   1.000  C
  C5       1.0000 0.35253  0.90751  0.62639  Biso   1.000  C
  C6       1.0000 0.35362  0.67528  0.75964  Biso   1.000  C
  C7       1.0000 0.35312  0.19849  0.78594  Biso   1.000  C
  C8       1.0000 0.35303  0.38431  0.60008  Biso   1.000  C
