# generated using pymatgen
data_C
_symmetry_space_group_name_H-M   'P 1'
_cell_length_a   3.72691569
_cell_length_b   4.58189847
_cell_length_c   4.74100515
_cell_angle_alpha   103.22119341
_cell_angle_beta   90.68875233
_cell_angle_gamma   111.30662106
_symmetry_Int_Tables_number   1
_chemical_formula_structural   C
_chemical_formula_sum   C8
_cell_volume   73.02126477
_cell_formula_units_Z   8
loop_
 _symmetry_equiv_pos_site_id
 _symmetry_equiv_pos_as_xyz
  1  'x, y, z'
loop_
 _atom_site_type_symbol
 _atom_site_label
 _atom_site_symmetry_multiplicity
 _atom_site_fract_x
 _atom_site_fract_y
 _atom_site_fract_z
 _atom_site_occupancy
  C  C1  1  0.031919  0.719874  0.438658  1
  C  C2  1  0.791496  0.479925  0.198539  1
  C  C3  1  0.026226  0.713769  0.749341  1
  C  C4  1  0.797190  0.486032  0.887857  1
  C  C5  1  0.342173  0.030907  0.432749  1
  C  C6  1  0.481244  0.168893  0.204448  1
  C  C7  1  0.508571  0.197383  0.721393  1
  C  C8  1  0.314847  0.002419  0.915807  1
