data_image0
_cell_length_a       3.18254
_cell_length_b       4.78445
_cell_length_c       4.69674
_cell_angle_alpha    114.657
_cell_angle_beta     73.7315
_cell_angle_gamma    111.083

_symmetry_space_group_name_H-M    "P 1"
_symmetry_int_tables_number       1

loop_
  _symmetry_equiv_pos_as_xyz
  'x, y, z'

loop_
  _atom_site_label
  _atom_site_occupancy
  _atom_site_fract_x
  _atom_site_fract_y
  _atom_site_fract_z
  _atom_site_thermal_displace_type
  _atom_site_B_iso_or_equiv
  _atom_site_type_symbol
  C1       1.0000 0.03704  0.71921  0.43802  Biso   1.000  C
  C2       1.0000 0.78637  0.48059  0.19918  Biso   1.000  C
  C3       1.0000 0.02858  0.71523  0.75086  Biso   1.000  C
  C4       1.0000 0.79483  0.48457  0.88633  Biso   1.000  C
  C5       1.0000 0.34577  0.03221  0.43379  Biso   1.000  C
  C6       1.0000 0.47765  0.16759  0.20341  Biso   1.000  C
  C7       1.0000 0.50495  0.19304  0.72552  Biso   1.000  C
  C8       1.0000 0.31847  0.00676  0.91168  Biso   1.000  C
