# generated using pymatgen
data_C
_symmetry_space_group_name_H-M   'P 1'
_cell_length_a   2.50271419
_cell_length_b   2.58249331
_cell_length_c   6.34583404
_cell_angle_alpha   95.47300889
_cell_angle_beta   90.00000000
_cell_angle_gamma   118.98324649
_symmetry_Int_Tables_number   1
_chemical_formula_structural   C
_chemical_formula_sum   C6
_cell_volume   35.66415156
_cell_formula_units_Z   6
loop_
 _symmetry_equiv_pos_site_id
 _symmetry_equiv_pos_as_xyz
  1  'x, y, z'
loop_
 _atom_site_type_symbol
 _atom_site_label
 _atom_site_symmetry_multiplicity
 _atom_site_fract_x
 _atom_site_fract_y
 _atom_site_fract_z
 _atom_site_occupancy
  C  C1  1  0.329367  0.559608  0.562195  1
  C  C2  1  0.811102  0.523077  0.452024  1
  C  C3  1  0.368866  0.638606  0.802134  1
  C  C4  1  0.771603  0.444079  0.212086  1
  C  C5  1  0.090069  0.081014  0.128860  1
  C  C6  1  0.050398  0.001672  0.885360  1
