# generated using pymatgen
data_C
_symmetry_space_group_name_H-M   'P 1'
_cell_length_a   4.06365751
_cell_length_b   3.57002976
_cell_length_c   5.76397885
_cell_angle_alpha   107.88134638
_cell_angle_beta   110.49876900
_cell_angle_gamma   90.42873371
_symmetry_Int_Tables_number   1
_chemical_formula_structural   C
_chemical_formula_sum   C8
_cell_volume   73.91885736
_cell_formula_units_Z   8
loop_
 _symmetry_equiv_pos_site_id
 _symmetry_equiv_pos_as_xyz
  1  'x, y, z'
loop_
 _atom_site_type_symbol
 _atom_site_label
 _atom_site_symmetry_multiplicity
 _atom_site_fract_x
 _atom_site_fract_y
 _atom_site_fract_z
 _atom_site_occupancy
  C  C1  1  0.669986  0.940404  0.886228  1
  C  C2  1  0.789049  0.307968  0.886228  1
  C  C3  1  0.921412  0.247895  0.469617  1
  C  C4  1  0.711379  0.335768  0.622907  1
  C  C5  1  -0.046436  0.848233  0.334321  1
  C  C6  1  0.815838  0.710507  0.058870  1
  C  C7  1  0.121012  0.583866  0.469617  1
  C  C8  1  0.484334  0.649281  0.622907  1
