# generated using pymatgen
data_C
_symmetry_space_group_name_H-M   'P 1'
_cell_length_a   4.09889760
_cell_length_b   3.83079260
_cell_length_c   5.86374538
_cell_angle_alpha   109.06560978
_cell_angle_beta   78.49550332
_cell_angle_gamma   127.63111599
_symmetry_Int_Tables_number   1
_chemical_formula_structural   C
_chemical_formula_sum   C8
_cell_volume   68.91782533
_cell_formula_units_Z   8
loop_
 _symmetry_equiv_pos_site_id
 _symmetry_equiv_pos_as_xyz
  1  'x, y, z'
loop_
 _atom_site_type_symbol
 _atom_site_label
 _atom_site_symmetry_multiplicity
 _atom_site_fract_x
 _atom_site_fract_y
 _atom_site_fract_z
 _atom_site_occupancy
  C  C1  1  0.621773  0.075500  0.849162  1
  C  C2  1  0.621774  0.201268  0.100696  1
  C  C3  1  0.905410  0.375055  0.702267  1
  C  C4  1  0.338139  0.629052  0.702267  1
  C  C5  1  0.528983  0.504888  0.495522  1
  C  C6  1  0.662806  0.986715  0.253056  1
  C  C7  1  0.580742  0.568181  0.253056  1
  C  C8  1  0.714566  0.292474  0.495522  1
