# generated using pymatgen
data_C
_symmetry_space_group_name_H-M   'P 1'
_cell_length_a   2.53960929
_cell_length_b   2.57345805
_cell_length_c   6.81982936
_cell_angle_alpha   80.96452321
_cell_angle_beta   80.52700263
_cell_angle_gamma   89.62106134
_symmetry_Int_Tables_number   1
_chemical_formula_structural   C
_chemical_formula_sum   C7
_cell_volume   43.40972008
_cell_formula_units_Z   7
loop_
 _symmetry_equiv_pos_site_id
 _symmetry_equiv_pos_as_xyz
  1  'x, y, z'
loop_
 _atom_site_type_symbol
 _atom_site_label
 _atom_site_symmetry_multiplicity
 _atom_site_fract_x
 _atom_site_fract_y
 _atom_site_fract_z
 _atom_site_occupancy
  C  C1  1  0.792030  0.072954  0.981339  1
  C  C2  1  0.723433  0.450487  0.126017  1
  C  C3  1  0.596967  0.803137  0.522286  1
  C  C4  1  0.129234  0.836866  0.386862  1
  C  C5  1  0.448331  0.752774  0.715185  1
  C  C6  1  0.352709  0.140683  0.853173  1
  C  C7  1  0.170663  0.388598  0.254713  1
