# generated using pymatgen
data_C
_symmetry_space_group_name_H-M   'P 1'
_cell_length_a   2.54242286
_cell_length_b   4.12707807
_cell_length_c   4.74941925
_cell_angle_alpha   95.56556059
_cell_angle_beta   105.52484361
_cell_angle_gamma   90.00000000
_symmetry_Int_Tables_number   1
_chemical_formula_structural   C
_chemical_formula_sum   C8
_cell_volume   47.77249213
_cell_formula_units_Z   8
loop_
 _symmetry_equiv_pos_site_id
 _symmetry_equiv_pos_as_xyz
  1  'x, y, z'
loop_
 _atom_site_type_symbol
 _atom_site_label
 _atom_site_symmetry_multiplicity
 _atom_site_fract_x
 _atom_site_fract_y
 _atom_site_fract_z
 _atom_site_occupancy
  C  C1  1  0.749829  0.210028  0.008914  1
  C  C2  1  0.689645  0.851407  0.888549  1
  C  C3  1  0.205693  0.375924  0.920645  1
  C  C4  1  0.265875  0.734544  0.041010  1
  C  C5  1  0.422219  0.913433  0.353698  1
  C  C6  1  0.921795  0.145307  0.352846  1
  C  C7  1  0.533300  0.672518  0.575860  1
  C  C8  1  0.033726  0.440645  0.576712  1
