# generated using pymatgen
data_C
_symmetry_space_group_name_H-M   'P 1'
_cell_length_a   3.53514881
_cell_length_b   4.60979024
_cell_length_c   6.24746575
_cell_angle_alpha   99.83647455
_cell_angle_beta   88.38432201
_cell_angle_gamma   96.70311895
_symmetry_Int_Tables_number   1
_chemical_formula_structural   C
_chemical_formula_sum   C11
_cell_volume   99.62459966
_cell_formula_units_Z   11
loop_
 _symmetry_equiv_pos_site_id
 _symmetry_equiv_pos_as_xyz
  1  'x, y, z'
loop_
 _atom_site_type_symbol
 _atom_site_label
 _atom_site_symmetry_multiplicity
 _atom_site_fract_x
 _atom_site_fract_y
 _atom_site_fract_z
 _atom_site_occupancy
  C  C1  1  0.242186  0.529751  0.701387  1
  C  C2  1  0.306981  0.710855  0.535705  1
  C  C3  1  0.780169  0.135093  0.532158  1
  C  C4  1  0.416848  0.021141  0.602318  1
  C  C5  1  0.796032  0.173805  0.307751  1
  C  C6  1  0.288099  0.654448  0.919954  1
  C  C7  1  0.334013  0.779147  0.138522  1
  C  C8  1  0.269218  0.598044  0.304203  1
  C  C9  1  0.445862  0.089410  0.196887  1
  C  C10  1  0.159351  0.287758  0.237590  1
  C  C11  1  0.130337  0.219489  0.643022  1
