data_image0
_cell_length_a       3.71924
_cell_length_b       3.71924
_cell_length_c       4.66961
_cell_angle_alpha    90
_cell_angle_beta     90
_cell_angle_gamma    50.2579

_symmetry_space_group_name_H-M    "P 1"
_symmetry_int_tables_number       1

loop_
  _symmetry_equiv_pos_as_xyz
  'x, y, z'

loop_
  _atom_site_label
  _atom_site_occupancy
  _atom_site_fract_x
  _atom_site_fract_y
  _atom_site_fract_z
  _atom_site_thermal_displace_type
  _atom_site_B_iso_or_equiv
  _atom_site_type_symbol
  C1       1.0000 0.23146  0.58696  0.84649  Biso   1.000  C
  C2       1.0000 0.85681  0.54266  0.84649  Biso   1.000  C
  C3       1.0000 0.54413  0.56481  0.06508  Biso   1.000  C
  C4       1.0000 0.54413  0.56481  0.35359  Biso   1.000  C
  C5       1.0000 0.52198  0.87748  0.57218  Biso   1.000  C
  C6       1.0000 0.56629  0.25213  0.57218  Biso   1.000  C
  C7       1.0000 0.04413  0.06481  0.70933  Biso   1.000  C
