# generated using pymatgen
data_C
_symmetry_space_group_name_H-M   'P 1'
_cell_length_a   2.51482650
_cell_length_b   2.59754894
_cell_length_c   7.86228491
_cell_angle_alpha   90.00000000
_cell_angle_beta   90.00000000
_cell_angle_gamma   90.00000000
_symmetry_Int_Tables_number   1
_chemical_formula_structural   C
_chemical_formula_sum   C8
_cell_volume   51.35947127
_cell_formula_units_Z   8
loop_
 _symmetry_equiv_pos_site_id
 _symmetry_equiv_pos_as_xyz
  1  'x, y, z'
loop_
 _atom_site_type_symbol
 _atom_site_label
 _atom_site_symmetry_multiplicity
 _atom_site_fract_x
 _atom_site_fract_y
 _atom_site_fract_z
 _atom_site_occupancy
  C  C1  1  0.190393  0.548405  0.258560  1
  C  C2  1  0.190393  0.548405  0.078564  1
  C  C3  1  0.690394  0.548405  0.989841  1
  C  C4  1  0.690394  0.548405  0.809845  1
  C  C5  1  0.190393  0.548405  0.704360  1
  C  C6  1  0.690394  0.548405  0.364044  1
  C  C7  1  0.690394  0.048405  0.477897  1
  C  C8  1  0.190393  0.048405  0.590508  1
