# generated using pymatgen
data_C
_symmetry_space_group_name_H-M   'P 1'
_cell_length_a   4.04420880
_cell_length_b   3.52613082
_cell_length_c   5.88105451
_cell_angle_alpha   99.25859002
_cell_angle_beta   69.88938672
_cell_angle_gamma   117.90009907
_symmetry_Int_Tables_number   1
_chemical_formula_structural   C
_chemical_formula_sum   C8
_cell_volume   69.59910245
_cell_formula_units_Z   8
loop_
 _symmetry_equiv_pos_site_id
 _symmetry_equiv_pos_as_xyz
  1  'x, y, z'
loop_
 _atom_site_type_symbol
 _atom_site_label
 _atom_site_symmetry_multiplicity
 _atom_site_fract_x
 _atom_site_fract_y
 _atom_site_fract_z
 _atom_site_occupancy
  C  C1  1  0.944443  0.136430  0.258742  1
  C  C2  1  0.293728  0.532733  0.258742  1
  C  C3  1  -0.011886  0.559611  0.718158  1
  C  C4  1  0.822434  0.834581  0.852045  1
  C  C5  1  0.688769  0.970015  0.503354  1
  C  C6  1  0.304788  0.699147  0.503354  1
  C  C7  1  0.790639  0.109552  0.718158  1
  C  C8  1  0.695308  0.834581  0.106295  1
