data_image0
_cell_length_a       2.59056
_cell_length_b       3.70614
_cell_length_c       5.84629
_cell_angle_alpha    94.3711
_cell_angle_beta     77.2062
_cell_angle_gamma    110.13

_symmetry_space_group_name_H-M    "P 1"
_symmetry_int_tables_number       1

loop_
  _symmetry_equiv_pos_as_xyz
  'x, y, z'

loop_
  _atom_site_label
  _atom_site_occupancy
  _atom_site_fract_x
  _atom_site_fract_y
  _atom_site_fract_z
  _atom_site_thermal_displace_type
  _atom_site_B_iso_or_equiv
  _atom_site_type_symbol
  C1       1.0000 0.95037  0.14294  0.25736  Biso   1.000  C
  C2       1.0000 0.28904  0.52623  0.25735  Biso   1.000  C
  C3       1.0000 0.91474  0.52716  0.72236  Biso   1.000  C
  C4       1.0000 0.81504  0.83457  0.86673  Biso   1.000  C
  C5       1.0000 0.81616  0.96302  0.48973  Biso   1.000  C
  C6       1.0000 0.19105  0.70615  0.48973  Biso   1.000  C
  C7       1.0000 0.85991  0.14200  0.72236  Biso   1.000  C
  C8       1.0000 0.69191  0.83458  0.11323  Biso   1.000  C
