# generated using pymatgen
data_C
_symmetry_space_group_name_H-M   'P 1'
_cell_length_a   4.06383591
_cell_length_b   4.15210116
_cell_length_c   5.63488233
_cell_angle_alpha   90.00000000
_cell_angle_beta   90.00000000
_cell_angle_gamma   95.32902459
_symmetry_Int_Tables_number   1
_chemical_formula_structural   C
_chemical_formula_sum   C11
_cell_volume   94.66899241
_cell_formula_units_Z   11
loop_
 _symmetry_equiv_pos_site_id
 _symmetry_equiv_pos_as_xyz
  1  'x, y, z'
loop_
 _atom_site_type_symbol
 _atom_site_label
 _atom_site_symmetry_multiplicity
 _atom_site_fract_x
 _atom_site_fract_y
 _atom_site_fract_z
 _atom_site_occupancy
  C  C1  1  0.078174  0.268993  0.055038  1
  C  C2  1  0.028013  0.066028  0.257961  1
  C  C3  1  0.916699  0.730331  0.257961  1
  C  C4  1  0.261707  0.135142  0.656594  1
  C  C5  1  0.050242  0.247681  0.479715  1
  C  C6  1  0.472357  0.898179  0.600671  1
  C  C7  1  0.683006  0.661216  0.656594  1
  C  C8  1  0.619852  0.506986  0.879816  1
  C  C9  1  0.894469  0.548680  0.479715  1
  C  C10  1  0.324861  0.289375  0.879816  1
  C  C11  1  0.866537  0.527365  0.055038  1
