# generated using pymatgen
data_C
_symmetry_space_group_name_H-M   'P 1'
_cell_length_a   2.48459823
_cell_length_b   2.63593279
_cell_length_c   8.57960221
_cell_angle_alpha   82.24056780
_cell_angle_beta   81.67448636
_cell_angle_gamma   61.88167912
_symmetry_Int_Tables_number   1
_chemical_formula_structural   C
_chemical_formula_sum   C8
_cell_volume   48.89206645
_cell_formula_units_Z   8
loop_
 _symmetry_equiv_pos_site_id
 _symmetry_equiv_pos_as_xyz
  1  'x, y, z'
loop_
 _atom_site_type_symbol
 _atom_site_label
 _atom_site_symmetry_multiplicity
 _atom_site_fract_x
 _atom_site_fract_y
 _atom_site_fract_z
 _atom_site_occupancy
  C  C1  1  0.797195  0.849719  0.312064  1
  C  C2  1  0.268151  0.824565  0.395305  1
  C  C3  1  0.679471  0.750153  0.647078  1
  C  C4  1  0.208516  0.775302  0.563836  1
  C  C5  1  0.618401  0.693503  0.825866  1
  C  C6  1  0.858267  0.906364  0.133274  1
  C  C7  1  0.207273  0.271344  0.070285  1
  C  C8  1  0.269396  0.328524  0.888856  1
