data_image0
_cell_length_a       3.47023
_cell_length_b       3.47023
_cell_length_c       4.8052
_cell_angle_alpha    79.2688
_cell_angle_beta     79.2688
_cell_angle_gamma    86.6483

_symmetry_space_group_name_H-M    "P 1"
_symmetry_int_tables_number       1

loop_
  _symmetry_equiv_pos_as_xyz
  'x, y, z'

loop_
  _atom_site_label
  _atom_site_occupancy
  _atom_site_fract_x
  _atom_site_fract_y
  _atom_site_fract_z
  _atom_site_thermal_displace_type
  _atom_site_B_iso_or_equiv
  _atom_site_type_symbol
  C1       1.0000 0.24966  0.39351  0.46160  Biso   1.000  C
  C2       1.0000 0.02814  0.19144  0.31206  Biso   1.000  C
  C3       1.0000 0.73994  0.90323  0.46160  Biso   1.000  C
  C4       1.0000 0.53786  0.68172  0.31206  Biso   1.000  C
  C5       1.0000 0.56834  0.92239  0.76985  Biso   1.000  C
  C6       1.0000 0.70946  0.66255  0.00381  Biso   1.000  C
  C7       1.0000 0.26882  0.22191  0.76985  Biso   1.000  C
  C8       1.0000 0.00898  0.36304  0.00381  Biso   1.000  C
