# generated using pymatgen
data_C
_symmetry_space_group_name_H-M   'P 1'
_cell_length_a   3.53485887
_cell_length_b   3.53485887
_cell_length_c   4.62497517
_cell_angle_alpha   78.88352370
_cell_angle_beta   78.88352369
_cell_angle_gamma   88.44953857
_symmetry_Int_Tables_number   1
_chemical_formula_structural   C
_chemical_formula_sum   C8
_cell_volume   55.63878715
_cell_formula_units_Z   8
loop_
 _symmetry_equiv_pos_site_id
 _symmetry_equiv_pos_as_xyz
  1  'x, y, z'
loop_
 _atom_site_type_symbol
 _atom_site_label
 _atom_site_symmetry_multiplicity
 _atom_site_fract_x
 _atom_site_fract_y
 _atom_site_fract_z
 _atom_site_occupancy
  C  C1  1  0.250828  0.392188  0.464138  1
  C  C2  1  0.026970  0.192757  0.309519  1
  C  C3  1  0.738615  0.904402  0.464138  1
  C  C4  1  0.539184  0.680544  0.309519  1
  C  C5  1  0.566998  0.922034  0.770825  1
  C  C6  1  0.710801  0.662909  0.002833  1
  C  C7  1  0.268463  0.220570  0.770825  1
  C  C8  1  0.009337  0.364375  0.002833  1
