# generated using pymatgen
data_C
_symmetry_space_group_name_H-M   'P 1'
_cell_length_a   2.50482209
_cell_length_b   2.69070648
_cell_length_c   8.30307672
_cell_angle_alpha   99.32478433
_cell_angle_beta   90.00000000
_cell_angle_gamma   90.00000000
_symmetry_Int_Tables_number   1
_chemical_formula_structural   C
_chemical_formula_sum   C8
_cell_volume   55.22110801
_cell_formula_units_Z   8
loop_
 _symmetry_equiv_pos_site_id
 _symmetry_equiv_pos_as_xyz
  1  'x, y, z'
loop_
 _atom_site_type_symbol
 _atom_site_label
 _atom_site_symmetry_multiplicity
 _atom_site_fract_x
 _atom_site_fract_y
 _atom_site_fract_z
 _atom_site_occupancy
  C  C1  1  0.835540  0.571384  0.765047  1
  C  C2  1  0.835540  0.657646  0.937570  1
  C  C3  1  0.835540  0.312902  0.248081  1
  C  C4  1  0.835540  0.399163  0.420604  1
  C  C5  1  0.335542  0.441850  0.505978  1
  C  C6  1  0.335542  0.528697  0.679673  1
  C  C7  1  0.335542  0.708673  0.039626  1
  C  C8  1  0.335542  0.261874  0.146026  1
