# generated using pymatgen
data_C
_symmetry_space_group_name_H-M   'P 1'
_cell_length_a   2.56188409
_cell_length_b   3.49825181
_cell_length_c   9.57650702
_cell_angle_alpha   89.99999993
_cell_angle_beta   90.00000000
_cell_angle_gamma   68.52062145
_symmetry_Int_Tables_number   1
_chemical_formula_structural   C
_chemical_formula_sum   C10
_cell_volume   79.86511390
_cell_formula_units_Z   10
loop_
 _symmetry_equiv_pos_site_id
 _symmetry_equiv_pos_as_xyz
  1  'x, y, z'
loop_
 _atom_site_type_symbol
 _atom_site_label
 _atom_site_symmetry_multiplicity
 _atom_site_fract_x
 _atom_site_fract_y
 _atom_site_fract_z
 _atom_site_occupancy
  C  C1  1  0.457003  0.024179  0.875386  1
  C  C2  1  0.457003  0.024179  1.021753  1
  C  C3  1  0.957002  0.024179  0.363114  1
  C  C4  1  0.957002  0.024179  0.216748  1
  C  C5  1  0.457003  0.024179  0.583491  1
  C  C6  1  0.457003  0.024179  0.434642  1
  C  C7  1  0.957002  0.024179  0.803858  1
  C  C8  1  0.957002  0.024179  0.655009  1
  C  C9  1  0.563167  0.311849  0.119250  1
  C  C10  1  0.350837  0.736511  0.119250  1
