# generated using pymatgen
data_C
_symmetry_space_group_name_H-M   'P 1'
_cell_length_a   3.15276198
_cell_length_b   3.70740260
_cell_length_c   4.66931249
_cell_angle_alpha   90.00000000
_cell_angle_beta   90.00000000
_cell_angle_gamma   90.00000000
_symmetry_Int_Tables_number   1
_chemical_formula_structural   C
_chemical_formula_sum   C8
_cell_volume   54.57752963
_cell_formula_units_Z   8
loop_
 _symmetry_equiv_pos_site_id
 _symmetry_equiv_pos_as_xyz
  1  'x, y, z'
loop_
 _atom_site_type_symbol
 _atom_site_label
 _atom_site_symmetry_multiplicity
 _atom_site_fract_x
 _atom_site_fract_y
 _atom_site_fract_z
 _atom_site_occupancy
  C  C1  1  0.002952  0.625473  0.063959  1
  C  C2  1  0.246422  0.798891  0.840779  1
  C  C3  1  0.502953  0.125474  0.840779  1
  C  C4  1  0.746422  0.298891  0.063959  1
  C  C5  1  0.002952  0.798891  0.340778  1
  C  C6  1  0.246422  0.625473  0.563959  1
  C  C7  1  0.502953  0.298891  0.563959  1
  C  C8  1  0.746422  0.125474  0.340778  1
