# generated using pymatgen
data_C
_symmetry_space_group_name_H-M   'P 1'
_cell_length_a   2.52492049
_cell_length_b   4.27492634
_cell_length_c   5.77992413
_cell_angle_alpha   81.60957912
_cell_angle_beta   77.38365744
_cell_angle_gamma   90.00000000
_symmetry_Int_Tables_number   1
_chemical_formula_structural   C
_chemical_formula_sum   C10
_cell_volume   60.19678994
_cell_formula_units_Z   10
loop_
 _symmetry_equiv_pos_site_id
 _symmetry_equiv_pos_as_xyz
  1  'x, y, z'
loop_
 _atom_site_type_symbol
 _atom_site_label
 _atom_site_symmetry_multiplicity
 _atom_site_fract_x
 _atom_site_fract_y
 _atom_site_fract_z
 _atom_site_occupancy
  C  C1  1  0.785052  0.603630  0.403226  1
  C  C2  1  0.750764  0.928090  0.471802  1
  C  C3  1  0.102723  0.370395  0.767883  1
  C  C4  1  0.232915  0.426302  0.507499  1
  C  C5  1  0.288156  0.113170  0.397018  1
  C  C6  1  0.047482  0.683528  0.878365  1
  C  C7  1  0.550585  0.193069  0.872159  1
  C  C8  1  0.584875  0.868608  0.803580  1
  C  C9  1  0.419853  0.277956  0.133623  1
  C  C10  1  0.915785  0.518741  0.141760  1
