data_image0
_cell_length_a       2.51704
_cell_length_b       4.3142
_cell_length_c       5.71994
_cell_angle_alpha    82.2277
_cell_angle_beta     77.2896
_cell_angle_gamma    90

_symmetry_space_group_name_H-M    "P 1"
_symmetry_int_tables_number       1

loop_
  _symmetry_equiv_pos_as_xyz
  'x, y, z'

loop_
  _atom_site_label
  _atom_site_occupancy
  _atom_site_fract_x
  _atom_site_fract_y
  _atom_site_fract_z
  _atom_site_thermal_displace_type
  _atom_site_B_iso_or_equiv
  _atom_site_type_symbol
  C1       1.0000 0.78561  0.59897  0.40212  Biso   1.000  C
  C2       1.0000 0.74399  0.92552  0.48534  Biso   1.000  C
  C3       1.0000 0.10156  0.37413  0.77021  Biso   1.000  C
  C4       1.0000 0.23408  0.42257  0.50518  Biso   1.000  C
  C5       1.0000 0.28718  0.11259  0.39896  Biso   1.000  C
  C6       1.0000 0.04845  0.68411  0.87642  Biso   1.000  C
  C7       1.0000 0.55003  0.19773  0.87327  Biso   1.000  C
  C8       1.0000 0.59165  0.87118  0.79004  Biso   1.000  C
  C9       1.0000 0.41816  0.28883  0.13702  Biso   1.000  C
  C10      1.0000 0.91748  0.50787  0.13836  Biso   1.000  C
