# generated using pymatgen
data_C
_symmetry_space_group_name_H-M   'P 1'
_cell_length_a   2.48985467
_cell_length_b   4.31633647
_cell_length_c   6.67200377
_cell_angle_alpha   85.90147491
_cell_angle_beta   100.75383083
_cell_angle_gamma   90.00000000
_symmetry_Int_Tables_number   1
_chemical_formula_structural   C
_chemical_formula_sum   C10
_cell_volume   70.25842247
_cell_formula_units_Z   10
loop_
 _symmetry_equiv_pos_site_id
 _symmetry_equiv_pos_as_xyz
  1  'x, y, z'
loop_
 _atom_site_type_symbol
 _atom_site_label
 _atom_site_symmetry_multiplicity
 _atom_site_fract_x
 _atom_site_fract_y
 _atom_site_fract_z
 _atom_site_occupancy
  C  C1  1  0.865071  0.182015  0.679261  1
  C  C2  1  0.746032  0.247733  0.441184  1
  C  C3  1  0.208072  0.754911  0.365261  1
  C  C4  1  0.717148  0.595003  0.383415  1
  C  C5  1  0.195703  0.104669  0.340524  1
  C  C6  1  0.529522  0.233728  0.008164  1
  C  C7  1  0.081581  0.196021  0.112280  1
  C  C8  1  0.403033  0.674837  0.755183  1
  C  C9  1  0.893955  0.834745  0.737029  1
  C  C10  1  0.415401  0.325078  0.779919  1
