data_image0
_cell_length_a       2.43214
_cell_length_b       4.21128
_cell_length_c       6.44984
_cell_angle_alpha    84.9553
_cell_angle_beta     100.868
_cell_angle_gamma    90

_symmetry_space_group_name_H-M    "P 1"
_symmetry_int_tables_number       1

loop_
  _symmetry_equiv_pos_as_xyz
  'x, y, z'

loop_
  _atom_site_label
  _atom_site_occupancy
  _atom_site_fract_x
  _atom_site_fract_y
  _atom_site_fract_z
  _atom_site_thermal_displace_type
  _atom_site_B_iso_or_equiv
  _atom_site_type_symbol
  C1       1.0000 0.86679  0.18767  0.68271  Biso   1.000  C
  C2       1.0000 0.74431  0.24208  0.43774  Biso   1.000  C
  C3       1.0000 0.20480  0.74852  0.35871  Biso   1.000  C
  C4       1.0000 0.71172  0.58934  0.37255  Biso   1.000  C
  C5       1.0000 0.19669  0.10146  0.34250  Biso   1.000  C
  C6       1.0000 0.52978  0.23490  0.00869  Biso   1.000  C
  C7       1.0000 0.08132  0.19485  0.11176  Biso   1.000  C
  C8       1.0000 0.40631  0.68123  0.76173  Biso   1.000  C
  C9       1.0000 0.89938  0.84041  0.74789  Biso   1.000  C
  C10      1.0000 0.41441  0.32829  0.77794  Biso   1.000  C
