# generated using pymatgen
data_C
_symmetry_space_group_name_H-M   'P 1'
_cell_length_a   4.30612421
_cell_length_b   5.04371196
_cell_length_c   5.30131635
_cell_angle_alpha   68.11014988
_cell_angle_beta   66.74709865
_cell_angle_gamma   74.02946789
_symmetry_Int_Tables_number   1
_chemical_formula_structural   C
_chemical_formula_sum   C12
_cell_volume   97.04710925
_cell_formula_units_Z   12
loop_
 _symmetry_equiv_pos_site_id
 _symmetry_equiv_pos_as_xyz
  1  'x, y, z'
loop_
 _atom_site_type_symbol
 _atom_site_label
 _atom_site_symmetry_multiplicity
 _atom_site_fract_x
 _atom_site_fract_y
 _atom_site_fract_z
 _atom_site_occupancy
  C  C1  1  0.702628  0.742439  0.451589  1
  C  C2  1  0.667427  0.051255  0.350234  1
  C  C3  1  0.135944  0.175890  0.710918  1
  C  C4  1  0.245398  0.081042  0.944146  1
  C  C5  1  0.086892  0.349649  0.256638  1
  C  C6  1  0.324934  0.221321  0.416858  1
  C  C7  1  0.594418  0.027952  0.895406  1
  C  C8  1  0.778114  0.267065  0.791190  1
  C  C9  1  0.736653  0.721529  0.951677  1
  C  C10  1  0.704639  0.578874  0.749946  1
  C  C11  1  0.998090  0.141778  0.191990  1
  C  C12  1  0.847783  0.609944  0.215966  1
