# generated using pymatgen
data_C
_symmetry_space_group_name_H-M   'P 1'
_cell_length_a   2.52730067
_cell_length_b   2.59117914
_cell_length_c   9.48984940
_cell_angle_alpha   89.99999999
_cell_angle_beta   82.34787467
_cell_angle_gamma   90.00000000
_symmetry_Int_Tables_number   1
_chemical_formula_structural   C
_chemical_formula_sum   C9
_cell_volume   61.59264761
_cell_formula_units_Z   9
loop_
 _symmetry_equiv_pos_site_id
 _symmetry_equiv_pos_as_xyz
  1  'x, y, z'
loop_
 _atom_site_type_symbol
 _atom_site_label
 _atom_site_symmetry_multiplicity
 _atom_site_fract_x
 _atom_site_fract_y
 _atom_site_fract_z
 _atom_site_occupancy
  C  C1  1  0.272497  0.556121  0.797972  1
  C  C2  1  0.196700  0.556121  0.949566  1
  C  C3  1  0.809314  0.556121  0.724337  1
  C  C4  1  0.548077  0.056121  0.246812  1
  C  C5  1  0.584044  0.556121  0.174878  1
  C  C6  1  0.659886  0.556121  0.023194  1
  C  C7  1  0.472662  0.056121  0.397643  1
  C  C8  1  0.884815  0.556121  0.573336  1
  C  C9  1  0.928601  0.056121  0.485763  1
