# generated using pymatgen
data_C
_symmetry_space_group_name_H-M   'P 1'
_cell_length_a   2.57087035
_cell_length_b   2.53607473
_cell_length_c   8.28419990
_cell_angle_alpha   81.19529605
_cell_angle_beta   89.99999997
_cell_angle_gamma   90.00000000
_symmetry_Int_Tables_number   1
_chemical_formula_structural   C
_chemical_formula_sum   C8
_cell_volume   53.37582426
_cell_formula_units_Z   8
loop_
 _symmetry_equiv_pos_site_id
 _symmetry_equiv_pos_as_xyz
  1  'x, y, z'
loop_
 _atom_site_type_symbol
 _atom_site_label
 _atom_site_symmetry_multiplicity
 _atom_site_fract_x
 _atom_site_fract_y
 _atom_site_fract_z
 _atom_site_occupancy
  C  C1  1  0.083956  0.283674  0.392142  1
  C  C2  1  0.083956  0.197059  0.565373  1
  C  C3  1  0.583958  0.041139  0.877213  1
  C  C4  1  0.583958  0.954551  0.050390  1
  C  C5  1  0.583958  0.412384  0.134723  1
  C  C6  1  0.583958  0.325280  0.308931  1
  C  C7  1  0.083956  0.646762  0.665968  1
  C  C8  1  0.583958  0.591517  0.776459  1
