# generated using pymatgen
data_C
_symmetry_space_group_name_H-M   'P 1'
_cell_length_a   2.52051051
_cell_length_b   2.52051051
_cell_length_c   12.44664167
_cell_angle_alpha   84.18869272
_cell_angle_beta   84.18869272
_cell_angle_gamma   60.00000000
_symmetry_Int_Tables_number   1
_chemical_formula_structural   C
_chemical_formula_sum   C12
_cell_volume   68.00973523
_cell_formula_units_Z   12
loop_
 _symmetry_equiv_pos_site_id
 _symmetry_equiv_pos_as_xyz
  1  'x, y, z'
loop_
 _atom_site_type_symbol
 _atom_site_label
 _atom_site_symmetry_multiplicity
 _atom_site_fract_x
 _atom_site_fract_y
 _atom_site_fract_z
 _atom_site_occupancy
  C  C1  1  0.381883  0.970436  0.617552  1
  C  C2  1  0.340254  0.928808  0.742438  1
  C  C3  1  0.770709  0.359260  0.451076  1
  C  C4  1  0.117962  0.706517  0.409309  1
  C  C5  1  0.159677  0.748232  0.284164  1
  C  C6  1  0.729096  0.317648  0.575914  1
  C  C7  1  0.993040  0.581594  0.784076  1
  C  C8  1  0.951428  0.539983  0.908911  1
  C  C9  1  0.840273  0.428824  0.242384  1
  C  C10  1  0.881866  0.470417  0.117605  1
  C  C11  1  0.562456  0.151013  0.075826  1
  C  C12  1  0.604175  0.192726  0.950678  1
