# generated using pymatgen
data_C
_symmetry_space_group_name_H-M   'P 1'
_cell_length_a   2.53001242
_cell_length_b   2.53001242
_cell_length_c   11.74486170
_cell_angle_alpha   90.00000000
_cell_angle_beta   90.00000000
_cell_angle_gamma   120.00000000
_symmetry_Int_Tables_number   1
_chemical_formula_structural   C
_chemical_formula_sum   C11
_cell_volume   65.10642454
_cell_formula_units_Z   11
loop_
 _symmetry_equiv_pos_site_id
 _symmetry_equiv_pos_as_xyz
  1  'x, y, z'
loop_
 _atom_site_type_symbol
 _atom_site_label
 _atom_site_symmetry_multiplicity
 _atom_site_fract_x
 _atom_site_fract_y
 _atom_site_fract_z
 _atom_site_occupancy
  C  C1  1  0.482107  0.859841  0.869163  1
  C  C2  1  0.815441  0.526509  0.825243  1
  C  C3  1  0.482107  0.859841  0.000390  1
  C  C4  1  0.148773  0.193174  0.044475  1
  C  C5  1  0.148773  0.193174  0.650031  1
  C  C6  1  0.815441  0.526509  0.693965  1
  C  C7  1  0.482107  0.859841  0.347446  1
  C  C8  1  0.482107  0.859841  0.474577  1
  C  C9  1  0.482107  0.859841  0.220337  1
  C  C10  1  0.148773  0.193174  0.518860  1
  C  C11  1  0.148773  0.193174  0.175913  1
