# generated using pymatgen
data_C
_symmetry_space_group_name_H-M   'P 1'
_cell_length_a   2.73337458
_cell_length_b   4.29807214
_cell_length_c   4.87566208
_cell_angle_alpha   83.98056738
_cell_angle_beta   74.20194193
_cell_angle_gamma   79.97285421
_symmetry_Int_Tables_number   1
_chemical_formula_structural   C
_chemical_formula_sum   C8
_cell_volume   54.17502285
_cell_formula_units_Z   8
loop_
 _symmetry_equiv_pos_site_id
 _symmetry_equiv_pos_as_xyz
  1  'x, y, z'
loop_
 _atom_site_type_symbol
 _atom_site_label
 _atom_site_symmetry_multiplicity
 _atom_site_fract_x
 _atom_site_fract_y
 _atom_site_fract_z
 _atom_site_occupancy
  C  C1  1  0.590505  0.687095  0.076358  1
  C  C2  1  0.446602  0.500156  0.335331  1
  C  C3  1  0.189043  0.008031  0.590705  1
  C  C4  1  0.848063  0.179222  0.820983  1
  C  C5  1  0.616639  0.014679  0.078086  1
  C  C6  1  0.420466  0.172573  0.333604  1
  C  C7  1  0.742632  0.539012  0.787807  1
  C  C8  1  0.294476  0.648240  0.623882  1
