# generated using pymatgen
data_C
_symmetry_space_group_name_H-M   'P 1'
_cell_length_a   2.72384018
_cell_length_b   4.30891841
_cell_length_c   4.86392165
_cell_angle_alpha   90.78770855
_cell_angle_beta   102.28148486
_cell_angle_gamma   101.18273435
_symmetry_Int_Tables_number   1
_chemical_formula_structural   C
_chemical_formula_sum   C8
_cell_volume   54.63120825
_cell_formula_units_Z   8
loop_
 _symmetry_equiv_pos_site_id
 _symmetry_equiv_pos_as_xyz
  1  'x, y, z'
loop_
 _atom_site_type_symbol
 _atom_site_label
 _atom_site_symmetry_multiplicity
 _atom_site_fract_x
 _atom_site_fract_y
 _atom_site_fract_z
 _atom_site_occupancy
  C  C1  1  0.610359  0.557833  0.281115  1
  C  C2  1  0.637164  0.231420  0.280443  1
  C  C3  1  0.518984  0.036529  0.034778  1
  C  C4  1  0.507512  0.557447  0.765678  1
  C  C5  1  0.630342  0.731272  0.535159  1
  C  C6  1  0.543781  0.712606  0.027689  1
  C  C7  1  0.361812  0.201774  0.720976  1
  C  C8  1  0.767217  0.089397  0.563567  1
