# generated using pymatgen
data_C
_symmetry_space_group_name_H-M   'P 1'
_cell_length_a   2.52225510
_cell_length_b   2.58370457
_cell_length_c   7.08096713
_cell_angle_alpha   90.00000000
_cell_angle_beta   79.74083022
_cell_angle_gamma   90.00000000
_symmetry_Int_Tables_number   1
_chemical_formula_structural   C
_chemical_formula_sum   C7
_cell_volume   45.40722145
_cell_formula_units_Z   7
loop_
 _symmetry_equiv_pos_site_id
 _symmetry_equiv_pos_as_xyz
  1  'x, y, z'
loop_
 _atom_site_type_symbol
 _atom_site_label
 _atom_site_symmetry_multiplicity
 _atom_site_fract_x
 _atom_site_fract_y
 _atom_site_fract_z
 _atom_site_occupancy
  C  C1  1  0.267905  0.616286  0.005551  1
  C  C2  1  0.369535  0.616286  0.802288  1
  C  C3  1  0.919318  0.616286  0.702725  1
  C  C4  1  0.021196  0.616286  0.498968  1
  C  C5  1  0.708520  0.616286  0.124319  1
  C  C6  1  0.079766  0.116285  0.381829  1
  C  C7  1  0.644246  0.116285  0.252868  1
