# generated using pymatgen
data_C
_symmetry_space_group_name_H-M   'P 1'
_cell_length_a   3.48723913
_cell_length_b   4.65074771
_cell_length_c   5.26921743
_cell_angle_alpha   71.66595512
_cell_angle_beta   76.93183440
_cell_angle_gamma   83.22559241
_symmetry_Int_Tables_number   1
_chemical_formula_structural   C
_chemical_formula_sum   C9
_cell_volume   78.91736258
_cell_formula_units_Z   9
loop_
 _symmetry_equiv_pos_site_id
 _symmetry_equiv_pos_as_xyz
  1  'x, y, z'
loop_
 _atom_site_type_symbol
 _atom_site_label
 _atom_site_symmetry_multiplicity
 _atom_site_fract_x
 _atom_site_fract_y
 _atom_site_fract_z
 _atom_site_occupancy
  C  C1  1  0.101617  0.018142  0.793567  1
  C  C2  1  0.235156  0.801580  0.653853  1
  C  C3  1  0.346814  0.804917  0.378512  1
  C  C4  1  0.314283  0.095007  0.179909  1
  C  C5  1  0.754243  0.190308  0.724235  1
  C  C6  1  0.798269  0.362022  0.438685  1
  C  C7  1  0.381860  0.118240  0.900559  1
  C  C8  1  0.469147  0.520730  0.330568  1
  C  C9  1  0.190970  0.351337  0.280937  1
