data_image0
_cell_length_a       3.45588
_cell_length_b       3.54654
_cell_length_c       5.94933
_cell_angle_alpha    86.4773
_cell_angle_beta     73.1383
_cell_angle_gamma    77.8051

_symmetry_space_group_name_H-M    "P 1"
_symmetry_int_tables_number       1

loop_
  _symmetry_equiv_pos_as_xyz
  'x, y, z'

loop_
  _atom_site_label
  _atom_site_occupancy
  _atom_site_fract_x
  _atom_site_fract_y
  _atom_site_fract_z
  _atom_site_thermal_displace_type
  _atom_site_B_iso_or_equiv
  _atom_site_type_symbol
  C1       1.0000 0.66574  0.60067  0.47659  Biso   1.000  C
  C2       1.0000 0.32551  0.92896  0.47664  Biso   1.000  C
  C3       1.0000 0.31071  0.92429  0.03248  Biso   1.000  C
  C4       1.0000 0.22164  0.07920  0.26839  Biso   1.000  C
  C5       1.0000 0.12499  0.60539  0.03245  Biso   1.000  C
  C6       1.0000 0.30660  0.26484  0.85528  Biso   1.000  C
  C7       1.0000 0.97761  0.45052  0.26828  Biso   1.000  C
  C8       1.0000 0.09539  0.15584  0.67864  Biso   1.000  C
  C9       1.0000 0.69429  0.37391  0.67863  Biso   1.000  C
