# generated using pymatgen
data_C
_symmetry_space_group_name_H-M   'P 1'
_cell_length_a   3.51470903
_cell_length_b   4.44652898
_cell_length_c   5.71592589
_cell_angle_alpha   91.97566106
_cell_angle_beta   77.22110784
_cell_angle_gamma   64.22382068
_symmetry_Int_Tables_number   1
_chemical_formula_structural   C
_chemical_formula_sum   C9
_cell_volume   77.57597306
_cell_formula_units_Z   9
loop_
 _symmetry_equiv_pos_site_id
 _symmetry_equiv_pos_as_xyz
  1  'x, y, z'
loop_
 _atom_site_type_symbol
 _atom_site_label
 _atom_site_symmetry_multiplicity
 _atom_site_fract_x
 _atom_site_fract_y
 _atom_site_fract_z
 _atom_site_occupancy
  C  C1  1  0.662705  0.608918  0.468858  1
  C  C2  1  0.362552  0.950704  0.476690  1
  C  C3  1  0.188270  0.823004  0.103633  1
  C  C4  1  0.209479  0.051381  0.264171  1
  C  C5  1  0.152209  0.530132  0.049423  1
  C  C6  1  0.332915  0.371549  0.803680  1
  C  C7  1  -0.008356  0.402469  0.249966  1
  C  C8  1  0.135020  0.219840  0.679340  1
  C  C9  1  0.687671  0.425616  0.671630  1
