# generated using pymatgen
data_C
_symmetry_space_group_name_H-M   'P 1'
_cell_length_a   4.11981022
_cell_length_b   4.12820944
_cell_length_c   4.12820944
_cell_angle_alpha   112.83018831
_cell_angle_beta   96.86202036
_cell_angle_gamma   96.86202037
_symmetry_Int_Tables_number   1
_chemical_formula_structural   C
_chemical_formula_sum   C7
_cell_volume   63.18250123
_cell_formula_units_Z   7
loop_
 _symmetry_equiv_pos_site_id
 _symmetry_equiv_pos_as_xyz
  1  'x, y, z'
loop_
 _atom_site_type_symbol
 _atom_site_label
 _atom_site_symmetry_multiplicity
 _atom_site_fract_x
 _atom_site_fract_y
 _atom_site_fract_z
 _atom_site_occupancy
  C  C1  1  0.450373  0.141451  0.366281  1
  C  C2  1  0.543677  0.813967  0.336031  1
  C  C3  1  0.294506  0.190194  0.063641  1
  C  C4  1  -0.002975  0.977709  0.851156  1
  C  C5  1  0.699544  0.765226  0.638672  1
  C  C6  1  0.543677  0.462584  0.687413  1
  C  C7  1  0.450373  0.492834  0.014898  1
