# generated using pymatgen
data_C
_symmetry_space_group_name_H-M   'P 1'
_cell_length_a   4.04375201
_cell_length_b   3.96186676
_cell_length_c   4.25374998
_cell_angle_alpha   69.07256730
_cell_angle_beta   68.78389382
_cell_angle_gamma   75.63304471
_symmetry_Int_Tables_number   1
_chemical_formula_structural   C
_chemical_formula_sum   C8
_cell_volume   58.78316573
_cell_formula_units_Z   8
loop_
 _symmetry_equiv_pos_site_id
 _symmetry_equiv_pos_as_xyz
  1  'x, y, z'
loop_
 _atom_site_type_symbol
 _atom_site_label
 _atom_site_symmetry_multiplicity
 _atom_site_fract_x
 _atom_site_fract_y
 _atom_site_fract_z
 _atom_site_occupancy
  C  C1  1  0.930186  0.985039  0.190332  1
  C  C2  1  0.716654  0.276216  0.318664  1
  C  C3  1  0.168469  0.718143  0.701262  1
  C  C4  1  0.955301  0.989355  0.852217  1
  C  C5  1  0.461266  0.520825  0.825926  1
  C  C6  1  0.430107  0.474166  0.182449  1
  C  C7  1  0.797435  0.381011  0.583687  1
  C  C8  1  0.092070  0.641534  0.414917  1
