# generated using pymatgen
data_C
_symmetry_space_group_name_H-M   'P 1'
_cell_length_a   2.73617409
_cell_length_b   4.87251992
_cell_length_c   4.87251992
_cell_angle_alpha   61.55625029
_cell_angle_beta   74.38030003
_cell_angle_gamma   74.38030003
_symmetry_Int_Tables_number   1
_chemical_formula_structural   C
_chemical_formula_sum   C8
_cell_volume   54.24161019
_cell_formula_units_Z   8
loop_
 _symmetry_equiv_pos_site_id
 _symmetry_equiv_pos_as_xyz
  1  'x, y, z'
loop_
 _atom_site_type_symbol
 _atom_site_label
 _atom_site_symmetry_multiplicity
 _atom_site_fract_x
 _atom_site_fract_y
 _atom_site_fract_z
 _atom_site_occupancy
  C  C1  1  0.928932  0.028140  0.060073  1
  C  C2  1  0.173538  0.859621  0.875486  1
  C  C3  1  0.928932  0.536175  0.552039  1
  C  C4  1  0.173538  0.351587  0.383521  1
  C  C5  1  0.736946  0.862992  0.386889  1
  C  C6  1  0.365524  0.024771  0.548668  1
  C  C7  1  0.247388  0.498882  0.022780  1
  C  C8  1  0.855084  0.388882  0.912781  1
