# generated using pymatgen
data_C
_symmetry_space_group_name_H-M   'P 1'
_cell_length_a   2.49772440
_cell_length_b   4.14887628
_cell_length_c   6.50473401
_cell_angle_alpha   96.47371081
_cell_angle_beta   90.00000000
_cell_angle_gamma   90.00000000
_symmetry_Int_Tables_number   1
_chemical_formula_structural   C
_chemical_formula_sum   C8
_cell_volume   66.97712192
_cell_formula_units_Z   8
loop_
 _symmetry_equiv_pos_site_id
 _symmetry_equiv_pos_as_xyz
  1  'x, y, z'
loop_
 _atom_site_type_symbol
 _atom_site_label
 _atom_site_symmetry_multiplicity
 _atom_site_fract_x
 _atom_site_fract_y
 _atom_site_fract_z
 _atom_site_occupancy
  C  C1  1  0.139706  0.231505  0.321398  1
  C  C2  1  0.639706  0.191564  0.422103  1
  C  C3  1  0.139706  0.063859  0.728083  1
  C  C4  1  0.639706  0.103800  0.627377  1
  C  C5  1  0.639706  0.493839  0.059979  1
  C  C6  1  0.639706  0.801524  0.989503  1
  C  C7  1  0.139706  0.985435  0.950268  1
  C  C8  1  0.139706  0.309928  0.099212  1
