# generated using pymatgen
data_C
_symmetry_space_group_name_H-M   'P 1'
_cell_length_a   2.60288267
_cell_length_b   4.21863047
_cell_length_c   4.89446103
_cell_angle_alpha   90.00000000
_cell_angle_beta   74.57951186
_cell_angle_gamma   90.00000000
_symmetry_Int_Tables_number   1
_chemical_formula_structural   C
_chemical_formula_sum   C8
_cell_volume   51.80935175
_cell_formula_units_Z   8
loop_
 _symmetry_equiv_pos_site_id
 _symmetry_equiv_pos_as_xyz
  1  'x, y, z'
loop_
 _atom_site_type_symbol
 _atom_site_label
 _atom_site_symmetry_multiplicity
 _atom_site_fract_x
 _atom_site_fract_y
 _atom_site_fract_z
 _atom_site_occupancy
  C  C1  1  0.517967  0.173179  0.791349  1
  C  C2  1  0.389592  0.008581  0.048100  1
  C  C3  1  0.389592  0.673181  0.048100  1
  C  C4  1  0.517967  0.508582  0.791349  1
  C  C5  1  0.243287  0.526299  0.340708  1
  C  C6  1  0.664270  0.655462  0.498741  1
  C  C7  1  0.664270  0.026299  0.498741  1
  C  C8  1  0.243287  0.155462  0.340708  1
