# generated using pymatgen
data_C
_symmetry_space_group_name_H-M   'P 1'
_cell_length_a   3.98252059
_cell_length_b   3.98252059
_cell_length_c   4.23607924
_cell_angle_alpha   69.78741489
_cell_angle_beta   69.78741489
_cell_angle_gamma   75.99683717
_symmetry_Int_Tables_number   1
_chemical_formula_structural   C
_chemical_formula_sum   C8
_cell_volume   58.58977107
_cell_formula_units_Z   8
loop_
 _symmetry_equiv_pos_site_id
 _symmetry_equiv_pos_as_xyz
  1  'x, y, z'
loop_
 _atom_site_type_symbol
 _atom_site_label
 _atom_site_symmetry_multiplicity
 _atom_site_fract_x
 _atom_site_fract_y
 _atom_site_fract_z
 _atom_site_occupancy
  C  C1  1  0.432225  0.530960  0.042180  1
  C  C2  1  0.223807  0.816819  0.183479  1
  C  C3  1  0.679143  0.272155  0.543618  1
  C  C4  1  0.718082  0.322545  0.183479  1
  C  C5  1  0.059228  0.157964  0.957040  1
  C  C6  1  0.173417  0.777880  0.543618  1
  C  C7  1  -0.035000  0.063739  0.684918  1
  C  C8  1  0.337997  0.436735  0.770056  1
