# generated using pymatgen
data_C
_symmetry_space_group_name_H-M   'P 1'
_cell_length_a   2.89799629
_cell_length_b   4.95391989
_cell_length_c   7.52645536
_cell_angle_alpha   80.52323804
_cell_angle_beta   82.43226024
_cell_angle_gamma   89.96014819
_symmetry_Int_Tables_number   1
_chemical_formula_structural   C
_chemical_formula_sum   C14
_cell_volume   105.62579906
_cell_formula_units_Z   14
loop_
 _symmetry_equiv_pos_site_id
 _symmetry_equiv_pos_as_xyz
  1  'x, y, z'
loop_
 _atom_site_type_symbol
 _atom_site_label
 _atom_site_symmetry_multiplicity
 _atom_site_fract_x
 _atom_site_fract_y
 _atom_site_fract_z
 _atom_site_occupancy
  C  C1  1  0.913574  0.914298  0.038848  1
  C  C2  1  0.851732  0.867209  0.226685  1
  C  C3  1  0.411455  0.449550  0.896951  1
  C  C4  1  0.508507  0.223825  0.806758  1
  C  C5  1  0.487709  0.943487  0.921882  1
  C  C6  1  0.214670  0.404513  0.076418  1
  C  C7  1  0.624991  0.269022  0.614890  1
  C  C8  1  0.947704  0.362624  0.244766  1
  C  C9  1  0.624997  0.771100  0.615750  1
  C  C10  1  0.685940  0.545097  0.520075  1
  C  C11  1  0.822309  0.593702  0.328794  1
  C  C12  1  0.685661  0.042674  0.520056  1
  C  C13  1  0.822129  0.089670  0.328790  1
  C  C14  1  0.508518  0.720299  0.807282  1
