# generated using pymatgen
data_C
_symmetry_space_group_name_H-M   'P 1'
_cell_length_a   2.53778304
_cell_length_b   4.46047812
_cell_length_c   6.75363083
_cell_angle_alpha   109.92592770
_cell_angle_beta   97.37545109
_cell_angle_gamma   92.35610890
_symmetry_Int_Tables_number   1
_chemical_formula_structural   C
_chemical_formula_sum   C12
_cell_volume   70.98203638
_cell_formula_units_Z   12
loop_
 _symmetry_equiv_pos_site_id
 _symmetry_equiv_pos_as_xyz
  1  'x, y, z'
loop_
 _atom_site_type_symbol
 _atom_site_label
 _atom_site_symmetry_multiplicity
 _atom_site_fract_x
 _atom_site_fract_y
 _atom_site_fract_z
 _atom_site_occupancy
  C  C1  1  0.347902  0.523493  0.766447  1
  C  C2  1  0.883519  0.398477  0.849373  1
  C  C3  1  0.261688  0.394112  0.523484  1
  C  C4  1  0.744713  0.522819  0.446268  1
  C  C5  1  0.671437  0.435183  0.206804  1
  C  C6  1  0.104478  0.523007  0.094204  1
  C  C7  1  0.828891  0.023888  0.769666  1
  C  C8  1  0.760499  0.896859  0.530357  1
  C  C9  1  0.244178  0.015664  0.443746  1
  C  C10  1  0.350305  0.905203  0.851658  1
  C  C11  1  0.395562  0.050728  0.090384  1
  C  C12  1  0.211762  0.891637  0.200413  1
