# generated using pymatgen
data_C
_symmetry_space_group_name_H-M   'P 1'
_cell_length_a   2.73236224
_cell_length_b   4.18212127
_cell_length_c   4.98412428
_cell_angle_alpha   90.00000000
_cell_angle_beta   90.00000000
_cell_angle_gamma   108.03606360
_symmetry_Int_Tables_number   1
_chemical_formula_structural   C
_chemical_formula_sum   C8
_cell_volume   54.15532563
_cell_formula_units_Z   8
loop_
 _symmetry_equiv_pos_site_id
 _symmetry_equiv_pos_as_xyz
  1  'x, y, z'
loop_
 _atom_site_type_symbol
 _atom_site_label
 _atom_site_symmetry_multiplicity
 _atom_site_fract_x
 _atom_site_fract_y
 _atom_site_fract_z
 _atom_site_occupancy
  C  C1  1  0.599293  0.123100  0.364064  1
  C  C2  1  0.351452  0.770745  0.364064  1
  C  C3  1  0.599293  0.123100  0.869093  1
  C  C4  1  0.351452  0.770745  0.869093  1
  C  C5  1  0.790420  0.285464  0.116578  1
  C  C6  1  0.160324  0.608381  0.116578  1
  C  C7  1  0.278504  0.556928  0.616578  1
  C  C8  1  0.672241  0.336917  0.616578  1
