data_image0
_cell_length_a       3.71955
_cell_length_b       4.30378
_cell_length_c       4.97299
_cell_angle_alpha    89.999
_cell_angle_beta     90.0041
_cell_angle_gamma    54.6506

_symmetry_space_group_name_H-M    "P 1"
_symmetry_int_tables_number       1

loop_
  _symmetry_equiv_pos_as_xyz
  'x, y, z'

loop_
  _atom_site_label
  _atom_site_occupancy
  _atom_site_fract_x
  _atom_site_fract_y
  _atom_site_fract_z
  _atom_site_thermal_displace_type
  _atom_site_B_iso_or_equiv
  _atom_site_type_symbol
  C1       1.0000 0.74923  0.76544  0.30281  Biso   1.000  C
  C2       1.0000 0.81894  0.55311  0.55400  Biso   1.000  C
  C3       1.0000 0.24154  0.43130  0.68300  Biso   1.000  C
  C4       1.0000 0.74928  0.58946  0.06318  Biso   1.000  C
  C5       1.0000 0.81900  0.73207  0.81200  Biso   1.000  C
  C6       1.0000 0.66410  0.30952  0.55400  Biso   1.000  C
  C7       1.0000 0.73384  0.09718  0.30282  Biso   1.000  C
  C8       1.0000 0.73389  0.27312  0.06319  Biso   1.000  C
  C9       1.0000 0.66416  0.13051  0.81200  Biso   1.000  C
