data_image0
_cell_length_a       3.52372
_cell_length_b       4.82893
_cell_length_c       5.61252
_cell_angle_alpha    78.7638
_cell_angle_beta     79.488
_cell_angle_gamma    90.0933

_symmetry_space_group_name_H-M    "P 1"
_symmetry_int_tables_number       1

loop_
  _symmetry_equiv_pos_as_xyz
  'x, y, z'

loop_
  _atom_site_label
  _atom_site_occupancy
  _atom_site_fract_x
  _atom_site_fract_y
  _atom_site_fract_z
  _atom_site_thermal_displace_type
  _atom_site_B_iso_or_equiv
  _atom_site_type_symbol
  C1       1.0000 0.39385  0.04032  0.38986  Biso   1.000  C
  C2       1.0000 0.22506  0.19409  0.56191  Biso   1.000  C
  C3       1.0000 0.63805  0.09175  0.15152  Biso   1.000  C
  C4       1.0000 0.98108  0.52584  0.80742  Biso   1.000  C
  C5       1.0000 0.88189  0.76657  0.90862  Biso   1.000  C
  C6       1.0000 0.21870  0.50033  0.56732  Biso   1.000  C
  C7       1.0000 0.39311  0.72949  0.38974  Biso   1.000  C
  C8       1.0000 0.64767  0.79743  0.14109  Biso   1.000  C
  C9       1.0000 0.85702  0.25086  0.93487  Biso   1.000  C
  C10      1.0000 0.00183  0.05142  0.78821  Biso   1.000  C
