# generated using pymatgen
data_C
_symmetry_space_group_name_H-M   'P 1'
_cell_length_a   3.85816438
_cell_length_b   4.68391846
_cell_length_c   5.51039970
_cell_angle_alpha   80.05292230
_cell_angle_beta   75.44120033
_cell_angle_gamma   90.84781594
_symmetry_Int_Tables_number   1
_chemical_formula_structural   C
_chemical_formula_sum   C10
_cell_volume   94.75669842
_cell_formula_units_Z   10
loop_
 _symmetry_equiv_pos_site_id
 _symmetry_equiv_pos_as_xyz
  1  'x, y, z'
loop_
 _atom_site_type_symbol
 _atom_site_label
 _atom_site_symmetry_multiplicity
 _atom_site_fract_x
 _atom_site_fract_y
 _atom_site_fract_z
 _atom_site_occupancy
  C  C1  1  0.349627  0.025626  0.356771  1
  C  C2  1  0.185949  0.203932  0.530002  1
  C  C3  1  0.698567  0.060853  0.196071  1
  C  C4  1  -0.027743  0.524630  0.813982  1
  C  C5  1  -0.000602  0.765141  0.923968  1
  C  C6  1  0.129747  0.510705  0.543530  1
  C  C7  1  0.143495  0.762628  0.356676  1
  C  C8  1  0.918493  0.802744  0.188714  1
  C  C9  1  0.837062  0.244339  0.952082  1
  C  C10  1  0.003675  0.047509  0.778762  1
