data_image0
_cell_length_a       3.05449
_cell_length_b       3.72562
_cell_length_c       4.87777
_cell_angle_alpha    67.5487
_cell_angle_beta     80.4268
_cell_angle_gamma    64.1843

_symmetry_space_group_name_H-M    "P 1"
_symmetry_int_tables_number       1

loop_
  _symmetry_equiv_pos_as_xyz
  'x, y, z'

loop_
  _atom_site_label
  _atom_site_occupancy
  _atom_site_fract_x
  _atom_site_fract_y
  _atom_site_fract_z
  _atom_site_thermal_displace_type
  _atom_site_B_iso_or_equiv
  _atom_site_type_symbol
  C1       1.0000 0.16729  0.87430  0.26872  Biso   1.000  C
  C2       1.0000 0.63453  0.53524  0.26872  Biso   1.000  C
  C3       1.0000 0.90091  0.94807  0.78213  Biso   1.000  C
  C4       1.0000 0.90091  0.10803  0.46220  Biso   1.000  C
  C5       1.0000 0.97209  0.14865  0.95988  Biso   1.000  C
  C6       1.0000 0.82973  0.56972  0.95988  Biso   1.000  C
