# generated using pymatgen
data_C
_symmetry_space_group_name_H-M   'P 1'
_cell_length_a   3.68509874
_cell_length_b   3.59998668
_cell_length_c   4.69035542
_cell_angle_alpha   67.43292071
_cell_angle_beta   79.42554496
_cell_angle_gamma   61.43264260
_symmetry_Int_Tables_number   1
_chemical_formula_structural   C
_chemical_formula_sum   C6
_cell_volume   50.46393017
_cell_formula_units_Z   6
loop_
 _symmetry_equiv_pos_site_id
 _symmetry_equiv_pos_as_xyz
  1  'x, y, z'
loop_
 _atom_site_type_symbol
 _atom_site_label
 _atom_site_symmetry_multiplicity
 _atom_site_fract_x
 _atom_site_fract_y
 _atom_site_fract_z
 _atom_site_occupancy
  C  C1  1  0.193527  0.862652  0.268366  1
  C  C2  1  0.608292  0.547243  0.268366  1
  C  C3  1  -0.099091  0.945569  0.787123  1
  C  C4  1  -0.099091  0.106987  0.464285  1
  C  C5  1  0.003404  0.132815  0.956696  1
  C  C6  1  0.798413  0.588749  0.956696  1
