# generated using pymatgen
data_C
_symmetry_space_group_name_H-M   'P 1'
_cell_length_a   2.54027087
_cell_length_b   3.50226380
_cell_length_c   4.67492245
_cell_angle_alpha   91.32363158
_cell_angle_beta   107.24024881
_cell_angle_gamma   108.78553307
_symmetry_Int_Tables_number   1
_chemical_formula_structural   C
_chemical_formula_sum   C5
_cell_volume   37.28210135
_cell_formula_units_Z   5
loop_
 _symmetry_equiv_pos_site_id
 _symmetry_equiv_pos_as_xyz
  1  'x, y, z'
loop_
 _atom_site_type_symbol
 _atom_site_label
 _atom_site_symmetry_multiplicity
 _atom_site_fract_x
 _atom_site_fract_y
 _atom_site_fract_z
 _atom_site_occupancy
  C  C1  1  0.396783  0.209059  0.943167  1
  C  C2  1  0.006682  0.485798  0.024360  1
  C  C3  1  0.096475  0.816768  0.825754  1
  C  C4  1  0.852816  0.698086  0.507306  1
  C  C5  1  0.244629  0.640623  0.355946  1
