# generated using pymatgen
data_C
_symmetry_space_group_name_H-M   'P 1'
_cell_length_a   2.53824872
_cell_length_b   2.53824872
_cell_length_c   10.56849726
_cell_angle_alpha   86.65553346
_cell_angle_beta   86.65553346
_cell_angle_gamma   61.53377598
_symmetry_Int_Tables_number   1
_chemical_formula_structural   C
_chemical_formula_sum   C10
_cell_volume   59.71943815
_cell_formula_units_Z   10
loop_
 _symmetry_equiv_pos_site_id
 _symmetry_equiv_pos_as_xyz
  1  'x, y, z'
loop_
 _atom_site_type_symbol
 _atom_site_label
 _atom_site_symmetry_multiplicity
 _atom_site_fract_x
 _atom_site_fract_y
 _atom_site_fract_z
 _atom_site_occupancy
  C  C1  1  0.042469  0.557613  0.000515  1
  C  C2  1  0.053195  0.068289  0.935501  1
  C  C3  1  0.079899  0.092348  0.791588  1
  C  C4  1  0.421748  0.433760  0.742177  1
  C  C5  1  0.813465  0.828556  0.402947  1
  C  C6  1  0.324137  0.839287  0.337934  1
  C  C7  1  0.789404  0.801853  0.546861  1
  C  C8  1  0.347460  0.860097  0.194074  1
  C  C9  1  0.021659  0.534293  0.144374  1
  C  C10  1  0.447992  0.460006  0.596271  1
