# generated using pymatgen
data_C
_symmetry_space_group_name_H-M   'P 1'
_cell_length_a   3.60865751
_cell_length_b   3.66649671
_cell_length_c   4.89148664
_cell_angle_alpha   74.17157472
_cell_angle_beta   74.39184508
_cell_angle_gamma   71.56638278
_symmetry_Int_Tables_number   1
_chemical_formula_structural   C
_chemical_formula_sum   C8
_cell_volume   57.87408925
_cell_formula_units_Z   8
loop_
 _symmetry_equiv_pos_site_id
 _symmetry_equiv_pos_as_xyz
  1  'x, y, z'
loop_
 _atom_site_type_symbol
 _atom_site_label
 _atom_site_symmetry_multiplicity
 _atom_site_fract_x
 _atom_site_fract_y
 _atom_site_fract_z
 _atom_site_occupancy
  C  C1  1  0.063741  0.048708  0.116347  1
  C  C2  1  0.631438  0.279423  0.155258  1
  C  C3  1  0.148602  0.787101  0.397920  1
  C  C4  1  0.929204  0.895870  0.663511  1
  C  C5  1  0.581715  0.215091  0.671709  1
  C  C6  1  0.099160  0.737341  0.903355  1
  C  C7  1  0.452475  0.433959  0.409573  1
  C  C8  1  0.353720  0.310935  0.963930  1
