# generated using pymatgen
data_C
_symmetry_space_group_name_H-M   'P 1'
_cell_length_a   3.52391197
_cell_length_b   4.86213746
_cell_length_c   5.59590220
_cell_angle_alpha   81.58788088
_cell_angle_beta   76.91015831
_cell_angle_gamma   78.41814356
_symmetry_Int_Tables_number   1
_chemical_formula_structural   C
_chemical_formula_sum   C11
_cell_volume   90.97383739
_cell_formula_units_Z   11
loop_
 _symmetry_equiv_pos_site_id
 _symmetry_equiv_pos_as_xyz
  1  'x, y, z'
loop_
 _atom_site_type_symbol
 _atom_site_label
 _atom_site_symmetry_multiplicity
 _atom_site_fract_x
 _atom_site_fract_y
 _atom_site_fract_z
 _atom_site_occupancy
  C  C1  1  0.276559  1.017847  -0.010551  1
  C  C2  1  0.545693  1.008852  0.759090  1
  C  C3  1  0.177712  0.773967  0.161528  1
  C  C4  1  0.319223  0.494994  0.109088  1
  C  C5  1  0.715959  0.428437  -0.018566  1
  C  C6  1  0.700286  0.254372  0.608335  1
  C  C7  1  0.890706  0.171739  0.370737  1
  C  C8  1  0.940047  0.863440  0.383676  1
  C  C9  1  0.734743  0.763533  0.620308  1
  C  C10  1  0.750972  0.480711  0.721376  1
  C  C11  1  0.049343  0.294770  0.108417  1
