data_image0
_cell_length_a       3.76365
_cell_length_b       3.76365
_cell_length_c       5.38016
_cell_angle_alpha    103.321
_cell_angle_beta     103.321
_cell_angle_gamma    109.954

_symmetry_space_group_name_H-M    "P 1"
_symmetry_int_tables_number       1

loop_
  _symmetry_equiv_pos_as_xyz
  'x, y, z'

loop_
  _atom_site_label
  _atom_site_occupancy
  _atom_site_fract_x
  _atom_site_fract_y
  _atom_site_fract_z
  _atom_site_thermal_displace_type
  _atom_site_B_iso_or_equiv
  _atom_site_type_symbol
  C1       1.0000 0.66175  0.06723  0.88395  Biso   1.000  C
  C2       1.0000 0.39793  0.74849  0.64195  Biso   1.000  C
  C3       1.0000 0.05812  0.40868  0.64195  Biso   1.000  C
  C4       1.0000 0.73938  0.14486  0.39996  Biso   1.000  C
  C5       1.0000 0.47468  0.77032  0.39996  Biso   1.000  C
  C6       1.0000 0.36651  0.44010  0.14195  Biso   1.000  C
  C7       1.0000 0.58954  0.21707  0.14195  Biso   1.000  C
  C8       1.0000 0.03629  0.33193  0.88395  Biso   1.000  C
