# generated using pymatgen
data_C
_symmetry_space_group_name_H-M   'P 1'
_cell_length_a   2.49256226
_cell_length_b   6.18216770
_cell_length_c   7.95995344
_cell_angle_alpha   68.01255138
_cell_angle_beta   99.00779848
_cell_angle_gamma   101.63012311
_symmetry_Int_Tables_number   1
_chemical_formula_structural   C
_chemical_formula_sum   C10
_cell_volume   110.95693766
_cell_formula_units_Z   10
loop_
 _symmetry_equiv_pos_site_id
 _symmetry_equiv_pos_as_xyz
  1  'x, y, z'
loop_
 _atom_site_type_symbol
 _atom_site_label
 _atom_site_symmetry_multiplicity
 _atom_site_fract_x
 _atom_site_fract_y
 _atom_site_fract_z
 _atom_site_occupancy
  C  C1  1  0.597282  0.496709  0.090006  1
  C  C2  1  0.035067  0.410349  0.051938  1
  C  C3  1  0.777488  0.566322  0.380806  1
  C  C4  1  0.296637  0.510681  0.474744  1
  C  C5  1  0.335712  0.396376  0.667199  1
  C  C6  1  0.854860  0.340735  0.761137  1
  C  C7  1  0.278824  0.831109  0.118690  1
  C  C8  1  0.353526  0.075949  0.023254  1
  C  C9  1  0.897956  0.221508  0.966556  1
  C  C10  1  0.734393  0.685551  0.175387  1
