data_image0
_cell_length_a       2.47667
_cell_length_b       6.18668
_cell_length_c       7.61497
_cell_angle_alpha    71.7367
_cell_angle_beta     99.3589
_cell_angle_gamma    101.546

_symmetry_space_group_name_H-M    "P 1"
_symmetry_int_tables_number       1

loop_
  _symmetry_equiv_pos_as_xyz
  'x, y, z'

loop_
  _atom_site_label
  _atom_site_occupancy
  _atom_site_fract_x
  _atom_site_fract_y
  _atom_site_fract_z
  _atom_site_thermal_displace_type
  _atom_site_B_iso_or_equiv
  _atom_site_type_symbol
  C1       1.0000 0.59747  0.49918  0.08790  Biso   1.000  C
  C2       1.0000 0.03488  0.40788  0.05404  Biso   1.000  C
  C3       1.0000 0.78298  0.57804  0.38008  Biso   1.000  C
  C4       1.0000 0.29920  0.51751  0.47305  Biso   1.000  C
  C5       1.0000 0.33314  0.38955  0.66889  Biso   1.000  C
  C6       1.0000 0.84937  0.32902  0.76186  Biso   1.000  C
  C7       1.0000 0.28283  0.84123  0.11658  Biso   1.000  C
  C8       1.0000 0.34952  0.06583  0.02537  Biso   1.000  C
  C9       1.0000 0.89175  0.20547  0.97017  Biso   1.000  C
  C10      1.0000 0.74060  0.70159  0.17177  Biso   1.000  C
