# generated using pymatgen
data_C
_symmetry_space_group_name_H-M   'P 1'
_cell_length_a   3.68349367
_cell_length_b   3.72325763
_cell_length_c   4.28450694
_cell_angle_alpha   89.95894275
_cell_angle_beta   90.39460581
_cell_angle_gamma   82.29824069
_symmetry_Int_Tables_number   1
_chemical_formula_structural   C
_chemical_formula_sum   C8
_cell_volume   58.22874909
_cell_formula_units_Z   8
loop_
 _symmetry_equiv_pos_site_id
 _symmetry_equiv_pos_as_xyz
  1  'x, y, z'
loop_
 _atom_site_type_symbol
 _atom_site_label
 _atom_site_symmetry_multiplicity
 _atom_site_fract_x
 _atom_site_fract_y
 _atom_site_fract_z
 _atom_site_occupancy
  C  C1  1  0.517652  0.019648  0.958757  1
  C  C2  1  0.163038  0.137394  0.785011  1
  C  C3  1  0.514346  0.022902  0.291082  1
  C  C4  1  0.012096  0.519644  0.299713  1
  C  C5  1  0.780455  0.787975  0.461402  1
  C  C6  1  0.235886  0.239042  0.456384  1
  C  C7  1  0.014764  0.528496  0.976986  1
  C  C8  1  0.872270  0.871366  0.793799  1
