# generated using pymatgen
data_C
_symmetry_space_group_name_H-M   'P 1'
_cell_length_a   2.54390072
_cell_length_b   2.54047681
_cell_length_c   14.88331801
_cell_angle_alpha   94.79977301
_cell_angle_beta   85.11534638
_cell_angle_gamma   116.97940286
_symmetry_Int_Tables_number   1
_chemical_formula_structural   C
_chemical_formula_sum   C14
_cell_volume   85.29741136
_cell_formula_units_Z   14
loop_
 _symmetry_equiv_pos_site_id
 _symmetry_equiv_pos_as_xyz
  1  'x, y, z'
loop_
 _atom_site_type_symbol
 _atom_site_label
 _atom_site_symmetry_multiplicity
 _atom_site_fract_x
 _atom_site_fract_y
 _atom_site_fract_z
 _atom_site_occupancy
  C  C1  1  0.815470  0.135803  0.497615  1
  C  C2  1  0.299431  0.151045  0.543664  1
  C  C3  1  0.852290  0.097168  0.395023  1
  C  C4  1  0.264910  0.180217  0.646297  1
  C  C5  1  0.880306  0.563444  0.820774  1
  C  C6  1  0.556617  0.886835  0.785568  1
  C  C7  1  0.835250  0.112898  -0.029900  1
  C  C8  1  0.850021  0.596573  0.923372  1
  C  C9  1  0.588282  0.856511  0.681505  1
  C  C10  1  0.786274  0.661134  0.113940  1
  C  C11  1  0.752958  0.693559  0.210408  1
  C  C12  1  0.237474  0.710360  0.257011  1
  C  C13  1  0.200698  0.749236  0.359587  1
  C  C14  1  0.802582  0.145355  0.066620  1
