# generated using pymatgen
data_C
_symmetry_space_group_name_H-M   'P 1'
_cell_length_a   2.70720819
_cell_length_b   4.88453538
_cell_length_c   4.88306540
_cell_angle_alpha   61.62669869
_cell_angle_beta   77.58418914
_cell_angle_gamma   76.91904216
_symmetry_Int_Tables_number   1
_chemical_formula_structural   C
_chemical_formula_sum   C8
_cell_volume   54.90317126
_cell_formula_units_Z   8
loop_
 _symmetry_equiv_pos_site_id
 _symmetry_equiv_pos_as_xyz
  1  'x, y, z'
loop_
 _atom_site_type_symbol
 _atom_site_label
 _atom_site_symmetry_multiplicity
 _atom_site_fract_x
 _atom_site_fract_y
 _atom_site_fract_z
 _atom_site_occupancy
  C  C1  1  0.620457  0.199993  0.805633  1
  C  C2  1  0.527723  0.389292  0.955097  1
  C  C3  1  0.504878  0.714545  0.803791  1
  C  C4  1  0.417914  0.879996  0.484788  1
  C  C5  1  0.509295  0.730328  0.295881  1
  C  C6  1  0.533014  0.881878  0.970595  1
  C  C7  1  0.313688  0.231521  0.347634  1
  C  C8  1  0.723449  0.337845  0.454520  1
