# generated using pymatgen
data_C
_symmetry_space_group_name_H-M   'P 1'
_cell_length_a   3.55879280
_cell_length_b   3.70883360
_cell_length_c   4.46378647
_cell_angle_alpha   65.81346377
_cell_angle_beta   84.86358366
_cell_angle_gamma   75.71393094
_symmetry_Int_Tables_number   1
_chemical_formula_structural   C
_chemical_formula_sum   C7
_cell_volume   52.07890591
_cell_formula_units_Z   7
loop_
 _symmetry_equiv_pos_site_id
 _symmetry_equiv_pos_as_xyz
  1  'x, y, z'
loop_
 _atom_site_type_symbol
 _atom_site_label
 _atom_site_symmetry_multiplicity
 _atom_site_fract_x
 _atom_site_fract_y
 _atom_site_fract_z
 _atom_site_occupancy
  C  C1  1  0.478686  0.279436  0.179499  1
  C  C2  1  0.151378  0.493917  0.936398  1
  C  C3  1  0.154243  0.860340  0.661091  1
  C  C4  1  0.866869  0.205964  0.650657  1
  C  C5  1  0.865223  0.301844  0.924882  1
  C  C6  1  0.411485  0.862105  0.397258  1
  C  C7  1  0.588371  0.473284  0.391380  1
