# generated using pymatgen
data_C
_symmetry_space_group_name_H-M   'P 1'
_cell_length_a   3.43361381
_cell_length_b   4.86070772
_cell_length_c   8.27373288
_cell_angle_alpha   90.00000000
_cell_angle_beta   78.02406222
_cell_angle_gamma   90.00000000
_symmetry_Int_Tables_number   1
_chemical_formula_structural   C
_chemical_formula_sum   C16
_cell_volume   135.08140549
_cell_formula_units_Z   16
loop_
 _symmetry_equiv_pos_site_id
 _symmetry_equiv_pos_as_xyz
  1  'x, y, z'
loop_
 _atom_site_type_symbol
 _atom_site_label
 _atom_site_symmetry_multiplicity
 _atom_site_fract_x
 _atom_site_fract_y
 _atom_site_fract_z
 _atom_site_occupancy
  C  C1  1  -0.008296  0.694173  0.778506  1
  C  C2  1  0.073294  0.444174  0.857473  1
  C  C3  1  0.211340  0.944173  0.338321  1
  C  C4  1  0.256006  0.694173  0.249903  1
  C  C5  1  0.212254  0.444174  0.338321  1
  C  C6  1  0.124648  0.944173  0.513533  1
  C  C7  1  0.079982  0.194174  0.601951  1
  C  C8  1  0.123733  0.444174  0.513533  1
  C  C9  1  -0.008296  0.194174  0.778506  1
  C  C10  1  0.262692  0.444174  -0.005620  1
  C  C11  1  0.344284  0.194174  0.073347  1
  C  C12  1  0.504841  0.944173  -0.005620  1
  C  C13  1  0.831146  0.944173  0.857473  1
  C  C14  1  0.256006  0.194174  0.249903  1
  C  C15  1  0.079982  0.694173  0.601951  1
  C  C16  1  0.344284  0.694173  0.073347  1
