# generated using pymatgen
data_C
_symmetry_space_group_name_H-M   'P 1'
_cell_length_a   3.60055131
_cell_length_b   4.49430912
_cell_length_c   6.30353033
_cell_angle_alpha   90.19987068
_cell_angle_beta   110.86588720
_cell_angle_gamma   105.54746151
_symmetry_Int_Tables_number   1
_chemical_formula_structural   C
_chemical_formula_sum   C11
_cell_volume   91.26978879
_cell_formula_units_Z   11
loop_
 _symmetry_equiv_pos_site_id
 _symmetry_equiv_pos_as_xyz
  1  'x, y, z'
loop_
 _atom_site_type_symbol
 _atom_site_label
 _atom_site_symmetry_multiplicity
 _atom_site_fract_x
 _atom_site_fract_y
 _atom_site_fract_z
 _atom_site_occupancy
  C  C1  1  0.693695  0.538856  0.603109  1
  C  C2  1  -0.007440  0.823054  0.702458  1
  C  C3  1  0.018729  0.202609  0.425237  1
  C  C4  1  0.895666  0.083559  0.602018  1
  C  C5  1  0.379490  0.898083  0.899521  1
  C  C6  1  0.321797  0.466532  0.404624  1
  C  C7  1  0.205913  0.583690  0.189387  1
  C  C8  1  0.474791  0.671821  0.059796  1
  C  C9  1  0.758274  0.490407  0.060298  1
  C  C10  1  0.636024  0.210848  0.906360  1
  C  C11  1  0.753410  0.271720  0.713252  1
