# generated using pymatgen
data_C
_symmetry_space_group_name_H-M   'P 1'
_cell_length_a   3.49847067
_cell_length_b   3.77458342
_cell_length_c   9.69757370
_cell_angle_alpha   90.00000003
_cell_angle_beta   90.00000000
_cell_angle_gamma   111.35866493
_symmetry_Int_Tables_number   1
_chemical_formula_structural   C
_chemical_formula_sum   C13
_cell_volume   119.26382335
_cell_formula_units_Z   13
loop_
 _symmetry_equiv_pos_site_id
 _symmetry_equiv_pos_as_xyz
  1  'x, y, z'
loop_
 _atom_site_type_symbol
 _atom_site_label
 _atom_site_symmetry_multiplicity
 _atom_site_fract_x
 _atom_site_fract_y
 _atom_site_fract_z
 _atom_site_occupancy
  C  C1  1  0.184290  0.002639  0.438816  1
  C  C2  1  0.184290  0.002639  0.293937  1
  C  C3  1  0.818740  0.903250  0.659174  1
  C  C4  1  0.184290  0.002639  0.582074  1
  C  C5  1  0.761740  0.700015  0.783758  1
  C  C6  1  0.606840  0.305262  0.783758  1
  C  C7  1  0.725175  0.833356  0.923261  1
  C  C8  1  0.643405  0.171922  0.923261  1
  C  C9  1  0.549840  0.102028  0.659174  1
  C  C10  1  0.684290  0.502640  0.010280  1
  C  C11  1  0.684290  0.502640  0.155048  1
  C  C12  1  0.067504  0.630061  0.227611  1
  C  C13  1  0.301076  0.375218  0.227611  1
