# generated using pymatgen
data_C
_symmetry_space_group_name_H-M   'P 1'
_cell_length_a   2.50857352
_cell_length_b   6.92608143
_cell_length_c   5.97252504
_cell_angle_alpha   101.50368018
_cell_angle_beta   90.00000000
_cell_angle_gamma   100.43361460
_symmetry_Int_Tables_number   1
_chemical_formula_structural   C
_chemical_formula_sum   C12
_cell_volume   99.93401328
_cell_formula_units_Z   12
loop_
 _symmetry_equiv_pos_site_id
 _symmetry_equiv_pos_as_xyz
  1  'x, y, z'
loop_
 _atom_site_type_symbol
 _atom_site_label
 _atom_site_symmetry_multiplicity
 _atom_site_fract_x
 _atom_site_fract_y
 _atom_site_fract_z
 _atom_site_occupancy
  C  C1  1  0.430184  0.509595  0.563651  1
  C  C2  1  0.906090  0.461405  0.449609  1
  C  C3  1  0.252433  0.154094  0.924738  1
  C  C4  1  0.341411  0.332049  0.094189  1
  C  C5  1  0.615112  0.879450  0.684665  1
  C  C6  1  0.708043  0.065310  0.843328  1
  C  C7  1  0.607320  0.863867  0.441802  1
  C  C8  1  0.011358  0.671944  0.906505  1
  C  C9  1  -0.000132  0.648963  0.135932  1
  C  C10  1  0.082956  0.815139  0.326296  1
  C  C11  1  0.516740  0.682707  0.771360  1
  C  C12  1  0.894640  0.438504  0.189953  1
