# generated using pymatgen
data_C
_symmetry_space_group_name_H-M   'P 1'
_cell_length_a   2.55745977
_cell_length_b   4.44513172
_cell_length_c   4.47959623
_cell_angle_alpha   97.19229526
_cell_angle_beta   93.04831041
_cell_angle_gamma   108.15580582
_symmetry_Int_Tables_number   1
_chemical_formula_structural   C
_chemical_formula_sum   C8
_cell_volume   47.77886584
_cell_formula_units_Z   8
loop_
 _symmetry_equiv_pos_site_id
 _symmetry_equiv_pos_as_xyz
  1  'x, y, z'
loop_
 _atom_site_type_symbol
 _atom_site_label
 _atom_site_symmetry_multiplicity
 _atom_site_fract_x
 _atom_site_fract_y
 _atom_site_fract_z
 _atom_site_occupancy
  C  C1  1  0.158631  0.649598  0.841558  1
  C  C2  1  0.727627  0.772412  0.027097  1
  C  C3  1  0.888714  0.289273  0.810084  1
  C  C4  1  0.515039  0.113908  0.555443  1
  C  C5  1  0.245123  0.753584  0.523969  1
  C  C6  1  0.915765  0.141313  0.092558  1
  C  C7  1  0.487990  0.261868  0.272968  1
  C  C8  1  0.676126  0.630768  0.338430  1
