# generated using pymatgen
data_C
_symmetry_space_group_name_H-M   'P 1'
_cell_length_a   3.90355904
_cell_length_b   3.90323071
_cell_length_c   4.98078692
_cell_angle_alpha   65.21201881
_cell_angle_beta   65.20813088
_cell_angle_gamma   57.08447357
_symmetry_Int_Tables_number   1
_chemical_formula_structural   C
_chemical_formula_sum   C6
_cell_volume   55.98217430
_cell_formula_units_Z   6
loop_
 _symmetry_equiv_pos_site_id
 _symmetry_equiv_pos_as_xyz
  1  'x, y, z'
loop_
 _atom_site_type_symbol
 _atom_site_label
 _atom_site_symmetry_multiplicity
 _atom_site_fract_x
 _atom_site_fract_y
 _atom_site_fract_z
 _atom_site_occupancy
  C  C1  1  0.761200  0.066102  0.750598  1
  C  C2  1  0.140559  0.686739  0.750603  1
  C  C3  1  0.202156  0.127676  0.245704  1
  C  C4  1  0.357352  0.282900  0.938052  1
  C  C5  1  0.798309  0.344475  0.433157  1
  C  C6  1  0.418949  0.723838  0.433155  1
