data_image0
_cell_length_a       3.77781
_cell_length_b       3.68707
_cell_length_c       4.37177
_cell_angle_alpha    112.519
_cell_angle_beta     106.409
_cell_angle_gamma    92.5475

_symmetry_space_group_name_H-M    "P 1"
_symmetry_int_tables_number       1

loop_
  _symmetry_equiv_pos_as_xyz
  'x, y, z'

loop_
  _atom_site_label
  _atom_site_occupancy
  _atom_site_fract_x
  _atom_site_fract_y
  _atom_site_fract_z
  _atom_site_thermal_displace_type
  _atom_site_B_iso_or_equiv
  _atom_site_type_symbol
  C1       1.0000 0.36475  0.16924  0.89138  Biso   1.000  C
  C2       1.0000 0.36490  0.78923  0.89156  Biso   1.000  C
  C3       1.0000 0.86402  0.22884  0.39035  Biso   1.000  C
  C4       1.0000 0.17190  0.38252  0.69839  Biso   1.000  C
  C5       1.0000 0.67117  0.44212  0.19736  Biso   1.000  C
  C6       1.0000 0.67102  0.82213  0.19719  Biso   1.000  C
