# generated using pymatgen
data_C
_symmetry_space_group_name_H-M   'P 1'
_cell_length_a   3.67452843
_cell_length_b   3.73034268
_cell_length_c   4.74592381
_cell_angle_alpha   109.00814612
_cell_angle_beta   110.62645552
_cell_angle_gamma   94.98613907
_symmetry_Int_Tables_number   1
_chemical_formula_structural   C
_chemical_formula_sum   C6
_cell_volume   56.04893102
_cell_formula_units_Z   6
loop_
 _symmetry_equiv_pos_site_id
 _symmetry_equiv_pos_as_xyz
  1  'x, y, z'
loop_
 _atom_site_type_symbol
 _atom_site_label
 _atom_site_symmetry_multiplicity
 _atom_site_fract_x
 _atom_site_fract_y
 _atom_site_fract_z
 _atom_site_occupancy
  C  C1  1  0.360003  0.165997  0.885524  1
  C  C2  1  0.360090  0.786664  0.885490  1
  C  C3  1  0.863273  0.228705  0.390600  1
  C  C4  1  0.172647  0.382660  0.698148  1
  C  C5  1  0.675919  0.445369  0.203225  1
  C  C6  1  0.675831  0.824703  0.203260  1
