data_image0
_cell_length_a       4.59007
_cell_length_b       4.59007
_cell_length_c       4.82678
_cell_angle_alpha    88.3203
_cell_angle_beta     136.554
_cell_angle_gamma    105.507

_symmetry_space_group_name_H-M    "P 1"
_symmetry_int_tables_number       1

loop_
  _symmetry_equiv_pos_as_xyz
  'x, y, z'

loop_
  _atom_site_label
  _atom_site_occupancy
  _atom_site_fract_x
  _atom_site_fract_y
  _atom_site_fract_z
  _atom_site_thermal_displace_type
  _atom_site_B_iso_or_equiv
  _atom_site_type_symbol
  C1       1.0000 0.91528  0.86187  0.73680  Biso   1.000  C
  C2       1.0000 0.15154  0.00974  0.12093  Biso   1.000  C
  C3       1.0000 0.90857  0.31097  0.42886  Biso   1.000  C
  C4       1.0000 0.15825  0.56065  0.42886  Biso   1.000  C
  C5       1.0000 0.98521  0.01149  0.50389  Biso   1.000  C
  C6       1.0000 0.53276  0.55904  0.50389  Biso   1.000  C
  C7       1.0000 0.08161  0.86012  0.35383  Biso   1.000  C
  C8       1.0000 0.53407  0.31258  0.35383  Biso   1.000  C
