# generated using pymatgen
data_C
_symmetry_space_group_name_H-M   'P 1'
_cell_length_a   4.48579906
_cell_length_b   4.48579906
_cell_length_c   4.72344379
_cell_angle_alpha   92.64285694
_cell_angle_beta   129.05910680
_cell_angle_gamma   106.73485890
_symmetry_Int_Tables_number   1
_chemical_formula_structural   C
_chemical_formula_sum   C8
_cell_volume   67.28741193
_cell_formula_units_Z   8
loop_
 _symmetry_equiv_pos_site_id
 _symmetry_equiv_pos_as_xyz
  1  'x, y, z'
loop_
 _atom_site_type_symbol
 _atom_site_label
 _atom_site_symmetry_multiplicity
 _atom_site_fract_x
 _atom_site_fract_y
 _atom_site_fract_z
 _atom_site_occupancy
  C  C1  1  0.901116  0.869083  0.729840  1
  C  C2  1  0.165706  0.002531  0.127881  1
  C  C3  1  0.900143  0.302540  0.428860  1
  C  C4  1  0.166677  0.569073  0.428860  1
  C  C5  1  0.983875  0.019747  0.514641  1
  C  C6  1  0.535251  0.571123  0.514641  1
  C  C7  1  0.082946  0.851865  0.343079  1
  C  C8  1  0.531570  0.300489  0.343079  1
