# generated using pymatgen
data_C
_symmetry_space_group_name_H-M   'P 1'
_cell_length_a   2.51577034
_cell_length_b   2.64892842
_cell_length_c   6.34377403
_cell_angle_alpha   102.05096894
_cell_angle_beta   101.43677994
_cell_angle_gamma   90.00000000
_symmetry_Int_Tables_number   1
_chemical_formula_structural   C
_chemical_formula_sum   C6
_cell_volume   40.48512830
_cell_formula_units_Z   6
loop_
 _symmetry_equiv_pos_site_id
 _symmetry_equiv_pos_as_xyz
  1  'x, y, z'
loop_
 _atom_site_type_symbol
 _atom_site_label
 _atom_site_symmetry_multiplicity
 _atom_site_fract_x
 _atom_site_fract_y
 _atom_site_fract_z
 _atom_site_occupancy
  C  C1  1  0.188539  0.489477  0.732158  1
  C  C2  1  0.072087  0.373025  0.499253  1
  C  C3  1  0.398280  0.199218  0.151640  1
  C  C4  1  0.514733  0.315670  0.384544  1
  C  C5  1  0.829811  0.130750  0.014702  1
  C  C6  1  0.757008  0.557946  0.869095  1
