# generated using pymatgen
data_C
_symmetry_space_group_name_H-M   'P 1'
_cell_length_a   3.34971458
_cell_length_b   4.72977385
_cell_length_c   4.72977385
_cell_angle_alpha   94.93625191
_cell_angle_beta   109.28120836
_cell_angle_gamma   109.28120837
_symmetry_Int_Tables_number   1
_chemical_formula_structural   C
_chemical_formula_sum   C8
_cell_volume   65.14495687
_cell_formula_units_Z   8
loop_
 _symmetry_equiv_pos_site_id
 _symmetry_equiv_pos_as_xyz
  1  'x, y, z'
loop_
 _atom_site_type_symbol
 _atom_site_label
 _atom_site_symmetry_multiplicity
 _atom_site_fract_x
 _atom_site_fract_y
 _atom_site_fract_z
 _atom_site_occupancy
  C  C1  1  0.229673  0.468134  0.637144  1
  C  C2  1  0.184215  0.238295  0.407305  1
  C  C3  1  0.341025  0.457269  0.962353  1
  C  C4  1  0.072862  0.249161  0.082097  1
  C  C5  1  0.072862  0.913086  0.418170  1
  C  C6  1  0.341025  0.793342  0.626281  1
  C  C7  1  0.706945  0.960687  0.914754  1
  C  C8  1  0.706943  0.745743  0.129697  1
