data_image0
_cell_length_a       3.24341
_cell_length_b       4.76729
_cell_length_c       4.76728
_cell_angle_alpha    96.0535
_cell_angle_beta     108.932
_cell_angle_gamma    108.932

_symmetry_space_group_name_H-M    "P 1"
_symmetry_int_tables_number       1

loop_
  _symmetry_equiv_pos_as_xyz
  'x, y, z'

loop_
  _atom_site_label
  _atom_site_occupancy
  _atom_site_fract_x
  _atom_site_fract_y
  _atom_site_fract_z
  _atom_site_thermal_displace_type
  _atom_site_B_iso_or_equiv
  _atom_site_type_symbol
  C1       1.0000 0.22833  0.46515  0.63416  Biso   1.000  C
  C2       1.0000 0.18555  0.24128  0.41029  Biso   1.000  C
  C3       1.0000 0.33254  0.45971  0.96343  Biso   1.000  C
  C4       1.0000 0.08134  0.24672  0.08102  Biso   1.000  C
  C5       1.0000 0.08134  0.91201  0.41573  Biso   1.000  C
  C6       1.0000 0.33254  0.79442  0.62872  Biso   1.000  C
  C7       1.0000 0.70694  0.95288  0.92256  Biso   1.000  C
  C8       1.0000 0.70694  0.75355  0.12189  Biso   1.000  C
