# generated using pymatgen
data_C
_symmetry_space_group_name_H-M   'P 1'
_cell_length_a   2.55811195
_cell_length_b   2.55811195
_cell_length_c   7.28551403
_cell_angle_alpha   90.00000001
_cell_angle_beta   90.00000000
_cell_angle_gamma   89.99999999
_symmetry_Int_Tables_number   1
_chemical_formula_structural   C
_chemical_formula_sum   C7
_cell_volume   47.67594303
_cell_formula_units_Z   7
loop_
 _symmetry_equiv_pos_site_id
 _symmetry_equiv_pos_as_xyz
  1  'x, y, z'
loop_
 _atom_site_type_symbol
 _atom_site_label
 _atom_site_symmetry_multiplicity
 _atom_site_fract_x
 _atom_site_fract_y
 _atom_site_fract_z
 _atom_site_occupancy
  C  C1  1  0.438710  0.478540  0.852901  1
  C  C2  1  0.938712  0.478540  0.946735  1
  C  C3  1  0.438710  0.478540  0.657086  1
  C  C4  1  0.438710  -0.021461  0.563252  1
  C  C5  1  0.938712  0.478540  0.141549  1
  C  C6  1  0.438710  -0.021461  0.368437  1
  C  C7  1  0.938712  -0.021461  0.254994  1
