# generated using pymatgen
data_C
_symmetry_space_group_name_H-M   'P 1'
_cell_length_a   3.93229190
_cell_length_b   3.92639409
_cell_length_c   4.08840939
_cell_angle_alpha   103.43493545
_cell_angle_beta   103.39976729
_cell_angle_gamma   77.56098023
_symmetry_Int_Tables_number   1
_chemical_formula_structural   C
_chemical_formula_sum   C8
_cell_volume   58.84798832
_cell_formula_units_Z   8
loop_
 _symmetry_equiv_pos_site_id
 _symmetry_equiv_pos_as_xyz
  1  'x, y, z'
loop_
 _atom_site_type_symbol
 _atom_site_label
 _atom_site_symmetry_multiplicity
 _atom_site_fract_x
 _atom_site_fract_y
 _atom_site_fract_z
 _atom_site_occupancy
  C  C1  1  0.486346  0.871940  0.712687  1
  C  C2  1  0.731121  0.114214  0.946597  1
  C  C3  1  0.554152  0.447699  0.148687  1
  C  C4  1  0.663406  0.538635  0.510293  1
  C  C5  1  0.152917  0.050185  0.510778  1
  C  C6  1  0.064728  0.936063  0.148209  1
  C  C7  1  0.888382  0.275164  0.668804  1
  C  C8  1  0.329322  0.711224  0.990027  1
