# generated using pymatgen
data_C
_symmetry_space_group_name_H-M   'P 1'
_cell_length_a   2.53396900
_cell_length_b   3.50925549
_cell_length_c   8.27127588
_cell_angle_alpha   94.51165000
_cell_angle_beta   90.00000739
_cell_angle_gamma   111.16413051
_symmetry_Int_Tables_number   1
_chemical_formula_structural   C
_chemical_formula_sum   C9
_cell_volume   68.34556934
_cell_formula_units_Z   9
loop_
 _symmetry_equiv_pos_site_id
 _symmetry_equiv_pos_as_xyz
  1  'x, y, z'
loop_
 _atom_site_type_symbol
 _atom_site_label
 _atom_site_symmetry_multiplicity
 _atom_site_fract_x
 _atom_site_fract_y
 _atom_site_fract_z
 _atom_site_occupancy
  C  C1  1  0.383225  0.332008  0.768268  1
  C  C2  1  0.195775  0.957109  0.844602  1
  C  C3  1  -0.009284  0.546992  0.765065  1
  C  C4  1  0.401249  0.368056  0.311665  1
  C  C5  1  0.393173  0.351904  0.136543  1
  C  C6  1  0.581648  0.728855  0.066430  1
  C  C7  1  0.605368  0.776294  0.391028  1
  C  C8  1  0.213920  -0.006602  0.389061  1
  C  C9  1  0.194280  0.954119  0.031430  1
