data_image0
_cell_length_a       3.73698
_cell_length_b       3.62598
_cell_length_c       4.81659
_cell_angle_alpha    63.1344
_cell_angle_beta     68.554
_cell_angle_gamma    71.9978

_symmetry_space_group_name_H-M    "P 1"
_symmetry_int_tables_number       1

loop_
  _symmetry_equiv_pos_as_xyz
  'x, y, z'

loop_
  _atom_site_label
  _atom_site_occupancy
  _atom_site_fract_x
  _atom_site_fract_y
  _atom_site_fract_z
  _atom_site_thermal_displace_type
  _atom_site_B_iso_or_equiv
  _atom_site_type_symbol
  C1       1.0000 0.79322  0.71147  0.51525  Biso   1.000  C
  C2       1.0000 0.14789  0.84842  0.32559  Biso   1.000  C
  C3       1.0000 0.11210  0.20807  0.03847  Biso   1.000  C
  C4       1.0000 0.52291  0.57875  0.41447  Biso   1.000  C
  C5       1.0000 0.65205  0.79420  0.80759  Biso   1.000  C
  C6       1.0000 0.75808  0.50622  0.08958  Biso   1.000  C
  C7       1.0000 0.40390  0.19865  0.74802  Biso   1.000  C
