# generated using pymatgen
data_C
_symmetry_space_group_name_H-M   'P 1'
_cell_length_a   3.54141848
_cell_length_b   4.21079106
_cell_length_c   4.60967278
_cell_angle_alpha   59.47675618
_cell_angle_beta   70.97935232
_cell_angle_gamma   67.89510493
_symmetry_Int_Tables_number   1
_chemical_formula_structural   C
_chemical_formula_sum   C7
_cell_volume   54.07390626
_cell_formula_units_Z   7
loop_
 _symmetry_equiv_pos_site_id
 _symmetry_equiv_pos_as_xyz
  1  'x, y, z'
loop_
 _atom_site_type_symbol
 _atom_site_label
 _atom_site_symmetry_multiplicity
 _atom_site_fract_x
 _atom_site_fract_y
 _atom_site_fract_z
 _atom_site_occupancy
  C  C1  1  0.755633  0.736839  0.508794  1
  C  C2  1  0.110527  0.846711  0.310792  1
  C  C3  1  0.117808  0.210933  0.044000  1
  C  C4  1  0.565092  0.532156  0.432575  1
  C  C5  1  0.622238  0.812805  0.794869  1
  C  C6  1  0.787372  0.511191  0.094112  1
  C  C7  1  0.431479  0.195147  0.753830  1
