# generated using pymatgen
data_C
_symmetry_space_group_name_H-M   'P 1'
_cell_length_a   2.51879025
_cell_length_b   3.55146597
_cell_length_c   4.64516790
_cell_angle_alpha   77.53879072
_cell_angle_beta   74.26911159
_cell_angle_gamma   69.23028723
_symmetry_Int_Tables_number   1
_chemical_formula_structural   C
_chemical_formula_sum   C5
_cell_volume   37.06541166
_cell_formula_units_Z   5
loop_
 _symmetry_equiv_pos_site_id
 _symmetry_equiv_pos_as_xyz
  1  'x, y, z'
loop_
 _atom_site_type_symbol
 _atom_site_label
 _atom_site_symmetry_multiplicity
 _atom_site_fract_x
 _atom_site_fract_y
 _atom_site_fract_z
 _atom_site_occupancy
  C  C1  1  0.260263  0.803940  0.069910  1
  C  C2  1  0.118381  0.216492  0.941122  1
  C  C3  1  0.224353  0.324382  0.621288  1
  C  C4  1  0.769167  0.387059  0.468987  1
  C  C5  1  0.850038  0.557554  0.136750  1
