# generated using pymatgen
data_C
_symmetry_space_group_name_H-M   'P 1'
_cell_length_a   2.47629424
_cell_length_b   5.68088869
_cell_length_c   7.21458303
_cell_angle_alpha   107.97177910
_cell_angle_beta   101.96492664
_cell_angle_gamma   97.58254455
_symmetry_Int_Tables_number   1
_chemical_formula_structural   C
_chemical_formula_sum   C11
_cell_volume   92.32527022
_cell_formula_units_Z   11
loop_
 _symmetry_equiv_pos_site_id
 _symmetry_equiv_pos_as_xyz
  1  'x, y, z'
loop_
 _atom_site_type_symbol
 _atom_site_label
 _atom_site_symmetry_multiplicity
 _atom_site_fract_x
 _atom_site_fract_y
 _atom_site_fract_z
 _atom_site_occupancy
  C  C1  1  0.860523  0.092659  0.298928  1
  C  C2  1  0.349684  -0.032414  0.320529  1
  C  C3  1  0.347635  0.712192  0.327655  1
  C  C4  1  0.807462  0.569057  0.309697  1
  C  C5  1  0.768709  0.294616  0.216370  1
  C  C6  1  0.107914  0.425933  0.776385  1
  C  C7  1  0.097133  0.300657  0.915727  1
  C  C8  1  0.805881  0.804114  0.821293  1
  C  C9  1  0.387600  0.930997  0.877288  1
  C  C10  1  0.638525  0.537834  0.752123  1
  C  C11  1  0.601857  0.210215  -0.014740  1
