# generated using pymatgen
data_C
_symmetry_space_group_name_H-M   'P 1'
_cell_length_a   2.50670047
_cell_length_b   2.59270060
_cell_length_c   8.54681628
_cell_angle_alpha   89.93636128
_cell_angle_beta   85.12691194
_cell_angle_gamma   66.10795659
_symmetry_Int_Tables_number   1
_chemical_formula_structural   C
_chemical_formula_sum   C8
_cell_volume   50.56963539
_cell_formula_units_Z   8
loop_
 _symmetry_equiv_pos_site_id
 _symmetry_equiv_pos_as_xyz
  1  'x, y, z'
loop_
 _atom_site_type_symbol
 _atom_site_label
 _atom_site_symmetry_multiplicity
 _atom_site_fract_x
 _atom_site_fract_y
 _atom_site_fract_z
 _atom_site_occupancy
  C  C1  1  0.530913  0.685570  0.058049  1
  C  C2  1  0.002299  0.696655  0.140775  1
  C  C3  1  0.589258  0.662121  0.890422  1
  C  C4  1  0.118603  0.649190  0.808540  1
  C  C5  1  0.919241  0.228074  0.388121  1
  C  C6  1  0.944851  0.718555  0.308701  1
  C  C7  1  0.178454  0.616469  0.629875  1
  C  C8  1  0.865544  0.254316  0.567593  1
