# generated using pymatgen
data_C
_symmetry_space_group_name_H-M   'P 1'
_cell_length_a   3.48285360
_cell_length_b   3.58803459
_cell_length_c   6.66124191
_cell_angle_alpha   90.00000000
_cell_angle_beta   90.00000000
_cell_angle_gamma   75.87147560
_symmetry_Int_Tables_number   1
_chemical_formula_structural   C
_chemical_formula_sum   C10
_cell_volume   80.72482445
_cell_formula_units_Z   10
loop_
 _symmetry_equiv_pos_site_id
 _symmetry_equiv_pos_as_xyz
  1  'x, y, z'
loop_
 _atom_site_type_symbol
 _atom_site_label
 _atom_site_symmetry_multiplicity
 _atom_site_fract_x
 _atom_site_fract_y
 _atom_site_fract_z
 _atom_site_occupancy
  C  C1  1  0.470448  0.004509  0.725530  1
  C  C2  1  0.470448  0.004509  0.938904  1
  C  C3  1  0.841827  0.874060  0.624855  1
  C  C4  1  0.970447  0.504509  0.529054  1
  C  C5  1  0.099065  0.134957  0.624855  1
  C  C6  1  0.168263  0.897471  0.051887  1
  C  C7  1  0.272928  0.611568  0.203346  1
  C  C8  1  0.667964  0.397451  0.203346  1
  C  C9  1  0.772629  0.111548  0.051887  1
  C  C10  1  0.970447  0.504509  0.315527  1
