# generated using pymatgen
data_C
_symmetry_space_group_name_H-M   'P 1'
_cell_length_a   3.59637849
_cell_length_b   4.67846758
_cell_length_c   5.53528097
_cell_angle_alpha   71.74625772
_cell_angle_beta   81.94209442
_cell_angle_gamma   84.61762224
_symmetry_Int_Tables_number   1
_chemical_formula_structural   C
_chemical_formula_sum   C11
_cell_volume   87.45082973
_cell_formula_units_Z   11
loop_
 _symmetry_equiv_pos_site_id
 _symmetry_equiv_pos_as_xyz
  1  'x, y, z'
loop_
 _atom_site_type_symbol
 _atom_site_label
 _atom_site_symmetry_multiplicity
 _atom_site_fract_x
 _atom_site_fract_y
 _atom_site_fract_z
 _atom_site_occupancy
  C  C1  1  0.773196  0.478304  0.666812  1
  C  C2  1  0.867745  0.174202  0.729002  1
  C  C3  1  0.442138  0.581180  0.567152  1
  C  C4  1  0.106431  0.694240  0.699223  1
  C  C5  1  0.391758  0.649726  0.306737  1
  C  C6  1  0.474075  0.955489  0.166285  1
  C  C7  1  0.782030  0.958367  0.974406  1
  C  C8  1  0.212443  0.486999  0.181613  1
  C  C9  1  0.078159  0.035132  0.548633  1
  C  C10  1  0.017216  0.678349  0.978800  1
  C  C11  1  0.250954  0.165675  0.283824  1
