# generated using pymatgen
data_C
_symmetry_space_group_name_H-M   'P 1'
_cell_length_a   2.55677936
_cell_length_b   2.55677936
_cell_length_c   7.29334774
_cell_angle_alpha   90.00000000
_cell_angle_beta   90.00000000
_cell_angle_gamma   90.00000000
_symmetry_Int_Tables_number   1
_chemical_formula_structural   C
_chemical_formula_sum   C7
_cell_volume   47.67749443
_cell_formula_units_Z   7
loop_
 _symmetry_equiv_pos_site_id
 _symmetry_equiv_pos_as_xyz
  1  'x, y, z'
loop_
 _atom_site_type_symbol
 _atom_site_label
 _atom_site_symmetry_multiplicity
 _atom_site_fract_x
 _atom_site_fract_y
 _atom_site_fract_z
 _atom_site_occupancy
  C  C1  1  0.457157  0.375400  0.522118  1
  C  C2  1  0.957153  0.375400  0.616101  1
  C  C3  1  0.957153  0.375400  0.811638  1
  C  C4  1  0.957153  0.875398  0.905621  1
  C  C5  1  0.457157  0.375400  0.327409  1
  C  C6  1  0.957153  0.875398  0.100330  1
  C  C7  1  0.957153  0.375400  0.213869  1
