# generated using pymatgen
data_C
_symmetry_space_group_name_H-M   'P 1'
_cell_length_a   3.92472354
_cell_length_b   3.91831099
_cell_length_c   4.31108868
_cell_angle_alpha   71.06056443
_cell_angle_beta   70.92335724
_cell_angle_gamma   77.55588791
_symmetry_Int_Tables_number   1
_chemical_formula_structural   C
_chemical_formula_sum   C8
_cell_volume   58.81864339
_cell_formula_units_Z   8
loop_
 _symmetry_equiv_pos_site_id
 _symmetry_equiv_pos_as_xyz
  1  'x, y, z'
loop_
 _atom_site_type_symbol
 _atom_site_label
 _atom_site_symmetry_multiplicity
 _atom_site_fract_x
 _atom_site_fract_y
 _atom_site_fract_z
 _atom_site_occupancy
  C  C1  1  0.567392  0.534561  0.223106  1
  C  C2  1  0.698072  0.663483  0.455172  1
  C  C3  1  0.841909  0.305000  0.019271  1
  C  C4  1  0.423861  0.893346  0.658728  1
  C  C5  1  0.927958  0.388361  0.657189  1
  C  C6  1  0.337813  0.809983  0.020810  1
  C  C7  1  0.273118  0.237629  0.500293  1
  C  C8  1  -0.007202  0.960858  0.177587  1
