data_image0
_cell_length_a       3.73694
_cell_length_b       3.62614
_cell_length_c       4.81665
_cell_angle_alpha    63.1303
_cell_angle_beta     68.5503
_cell_angle_gamma    71.9945

_symmetry_space_group_name_H-M    "P 1"
_symmetry_int_tables_number       1

loop_
  _symmetry_equiv_pos_as_xyz
  'x, y, z'

loop_
  _atom_site_label
  _atom_site_occupancy
  _atom_site_fract_x
  _atom_site_fract_y
  _atom_site_fract_z
  _atom_site_thermal_displace_type
  _atom_site_B_iso_or_equiv
  _atom_site_type_symbol
  C1       1.0000 0.21835  0.45969  0.16790  Biso   1.000  C
  C2       1.0000 0.57302  0.59664  0.97824  Biso   1.000  C
  C3       1.0000 0.71417  0.51390  0.68591  Biso   1.000  C
  C4       1.0000 0.25411  0.10002  0.45503  Biso   1.000  C
  C5       1.0000 0.60813  0.80186  0.40391  Biso   1.000  C
  C6       1.0000 0.96232  0.10943  0.74548  Biso   1.000  C
  C7       1.0000 0.84333  0.72933  0.07902  Biso   1.000  C
