# generated using pymatgen
data_C
_symmetry_space_group_name_H-M   'P 1'
_cell_length_a   3.47206729
_cell_length_b   3.47206729
_cell_length_c   4.66483378
_cell_angle_alpha   104.32096409
_cell_angle_beta   104.32096402
_cell_angle_gamma   109.59352696
_symmetry_Int_Tables_number   1
_chemical_formula_structural   C
_chemical_formula_sum   C5
_cell_volume   47.85462567
_cell_formula_units_Z   5
loop_
 _symmetry_equiv_pos_site_id
 _symmetry_equiv_pos_as_xyz
  1  'x, y, z'
loop_
 _atom_site_type_symbol
 _atom_site_label
 _atom_site_symmetry_multiplicity
 _atom_site_fract_x
 _atom_site_fract_y
 _atom_site_fract_z
 _atom_site_occupancy
  C  C1  1  0.430127  0.379928  0.142537  1
  C  C2  1  0.264699  0.214500  0.811680  1
  C  C3  1  0.099269  0.049070  0.480820  1
  C  C4  1  0.639728  0.839471  0.311679  1
  C  C5  1  0.389669  0.089530  0.311679  1
