# generated using pymatgen
data_C
_symmetry_space_group_name_H-M   'P 1'
_cell_length_a   2.56001761
_cell_length_b   2.54811026
_cell_length_c   8.21951730
_cell_angle_alpha   84.84260854
_cell_angle_beta   87.98965705
_cell_angle_gamma   86.19679327
_symmetry_Int_Tables_number   1
_chemical_formula_structural   C
_chemical_formula_sum   C8
_cell_volume   53.26006647
_cell_formula_units_Z   8
loop_
 _symmetry_equiv_pos_site_id
 _symmetry_equiv_pos_as_xyz
  1  'x, y, z'
loop_
 _atom_site_type_symbol
 _atom_site_label
 _atom_site_symmetry_multiplicity
 _atom_site_fract_x
 _atom_site_fract_y
 _atom_site_fract_z
 _atom_site_occupancy
  C  C1  1  0.899384  0.693664  0.115108  1
  C  C2  1  0.909478  0.645305  0.286931  1
  C  C3  1  0.501590  0.837145  0.790149  1
  C  C4  1  0.449483  0.254060  0.905621  1
  C  C5  1  0.521122  0.938722  0.622043  1
  C  C6  1  0.020782  0.025749  0.538461  1
  C  C7  1  -0.025283  0.116790  0.366724  1
  C  C8  1  0.931772  0.222622  0.015334  1
