# generated using pymatgen
data_C
_symmetry_space_group_name_H-M   'P 1'
_cell_length_a   2.51232874
_cell_length_b   3.33442126
_cell_length_c   4.62848787
_cell_angle_alpha   80.09889456
_cell_angle_beta   81.58014358
_cell_angle_gamma   76.48945306
_symmetry_Int_Tables_number   1
_chemical_formula_structural   C
_chemical_formula_sum   C5
_cell_volume   36.90987956
_cell_formula_units_Z   5
loop_
 _symmetry_equiv_pos_site_id
 _symmetry_equiv_pos_as_xyz
  1  'x, y, z'
loop_
 _atom_site_type_symbol
 _atom_site_label
 _atom_site_symmetry_multiplicity
 _atom_site_fract_x
 _atom_site_fract_y
 _atom_site_fract_z
 _atom_site_occupancy
  C  C1  1  0.944586  0.302037  0.528134  1
  C  C2  1  0.469990  0.365553  0.378048  1
  C  C3  1  0.989613  0.788191  0.985325  1
  C  C4  1  0.845700  0.171488  0.829170  1
  C  C5  1  0.549655  0.535375  0.053603  1
