# generated using pymatgen
data_C
_symmetry_space_group_name_H-M   'P 1'
_cell_length_a   2.49511494
_cell_length_b   4.22983223
_cell_length_c   8.36414670
_cell_angle_alpha   104.64651950
_cell_angle_beta   81.42201857
_cell_angle_gamma   90.00000000
_symmetry_Int_Tables_number   1
_chemical_formula_structural   C
_chemical_formula_sum   C10
_cell_volume   84.38494371
_cell_formula_units_Z   10
loop_
 _symmetry_equiv_pos_site_id
 _symmetry_equiv_pos_as_xyz
  1  'x, y, z'
loop_
 _atom_site_type_symbol
 _atom_site_label
 _atom_site_symmetry_multiplicity
 _atom_site_fract_x
 _atom_site_fract_y
 _atom_site_fract_z
 _atom_site_occupancy
  C  C1  1  0.203516  0.805343  0.525334  1
  C  C2  1  0.188437  0.150862  0.555493  1
  C  C3  1  0.699427  0.645218  0.533513  1
  C  C4  1  0.663993  0.349530  0.604382  1
  C  C5  1  0.568510  0.469836  0.795348  1
  C  C6  1  0.025438  0.512907  0.881489  1
  C  C7  1  0.405510  0.433787  0.121345  1
  C  C8  1  0.390431  0.118428  0.151505  1
  C  C9  1  0.894521  0.950123  0.143325  1
  C  C10  1  0.929956  0.583567  0.072456  1
