data_image0
_cell_length_a       2.47742
_cell_length_b       4.30602
_cell_length_c       8.10628
_cell_angle_alpha    105.402
_cell_angle_beta     81.2103
_cell_angle_gamma    90

_symmetry_space_group_name_H-M    "P 1"
_symmetry_int_tables_number       1

loop_
  _symmetry_equiv_pos_as_xyz
  'x, y, z'

loop_
  _atom_site_label
  _atom_site_occupancy
  _atom_site_fract_x
  _atom_site_fract_y
  _atom_site_fract_z
  _atom_site_thermal_displace_type
  _atom_site_B_iso_or_equiv
  _atom_site_type_symbol
  C1       1.0000 0.19639  0.81451  0.53958  Biso   1.000  C
  C2       1.0000 0.19526  0.14107  0.54185  Biso   1.000  C
  C3       1.0000 0.69332  0.65287  0.54573  Biso   1.000  C
  C4       1.0000 0.67620  0.32933  0.57997  Biso   1.000  C
  C5       1.0000 0.56708  0.47866  0.79822  Biso   1.000  C
  C6       1.0000 0.02687  0.51886  0.87862  Biso   1.000  C
  C7       1.0000 0.39869  0.43764  0.13499  Biso   1.000  C
  C8       1.0000 0.39756  0.11334  0.13726  Biso   1.000  C
  C9       1.0000 0.90063  0.94556  0.13111  Biso   1.000  C
  C10      1.0000 0.91775  0.58777  0.09686  Biso   1.000  C
