# generated using pymatgen
data_C
_symmetry_space_group_name_H-M   'P 1'
_cell_length_a   4.14372513
_cell_length_b   4.66972111
_cell_length_c   5.59246335
_cell_angle_alpha   74.05486856
_cell_angle_beta   78.72825435
_cell_angle_gamma   68.05559136
_symmetry_Int_Tables_number   1
_chemical_formula_structural   C
_chemical_formula_sum   C11
_cell_volume   95.98818544
_cell_formula_units_Z   11
loop_
 _symmetry_equiv_pos_site_id
 _symmetry_equiv_pos_as_xyz
  1  'x, y, z'
loop_
 _atom_site_type_symbol
 _atom_site_label
 _atom_site_symmetry_multiplicity
 _atom_site_fract_x
 _atom_site_fract_y
 _atom_site_fract_z
 _atom_site_occupancy
  C  C1  1  -0.052037  0.922560  0.209319  1
  C  C2  1  0.646191  0.897934  0.361509  1
  C  C3  1  -0.056075  0.225967  0.081378  1
  C  C4  1  0.419299  0.159525  0.468469  1
  C  C5  1  0.632310  0.521250  0.732239  1
  C  C6  1  -0.052619  0.299606  0.821728  1
  C  C7  1  0.594436  0.605356  0.473068  1
  C  C8  1  0.432844  0.469522  0.352411  1
  C  C9  1  0.379967  0.746702  0.870398  1
  C  C10  1  0.256144  0.678925  0.138909  1
  C  C11  1  0.238997  0.075599  0.711117  1
