data_image0
_cell_length_a       3.66646
_cell_length_b       4.84995
_cell_length_c       5.33064
_cell_angle_alpha    81.1387
_cell_angle_beta     84.793
_cell_angle_gamma    69.6038

_symmetry_space_group_name_H-M    "P 1"
_symmetry_int_tables_number       1

loop_
  _symmetry_equiv_pos_as_xyz
  'x, y, z'

loop_
  _atom_site_label
  _atom_site_occupancy
  _atom_site_fract_x
  _atom_site_fract_y
  _atom_site_fract_z
  _atom_site_thermal_displace_type
  _atom_site_B_iso_or_equiv
  _atom_site_type_symbol
  C1       1.0000 0.92816  0.91785  0.20051  Biso   1.000  C
  C2       1.0000 0.64084  0.88715  0.38484  Biso   1.000  C
  C3       1.0000 0.82498  0.22039  0.11340  Biso   1.000  C
  C4       1.0000 0.40814  0.14879  0.47728  Biso   1.000  C
  C5       1.0000 0.67239  0.55670  0.72924  Biso   1.000  C
  C6       1.0000 0.92016  0.29155  0.86015  Biso   1.000  C
  C7       1.0000 0.63928  0.59418  0.46811  Biso   1.000  C
  C8       1.0000 0.51927  0.41406  0.28989  Biso   1.000  C
  C9       1.0000 0.40380  0.78913  0.86382  Biso   1.000  C
  C10      1.0000 0.25213  0.69496  0.10627  Biso   1.000  C
  C11      1.0000 0.23031  0.08818  0.72704  Biso   1.000  C
