data_image0
_cell_length_a       3.03793
_cell_length_b       3.82403
_cell_length_c       6.25272
_cell_angle_alpha    107.712
_cell_angle_beta     85.193
_cell_angle_gamma    90.1901

_symmetry_space_group_name_H-M    "P 1"
_symmetry_int_tables_number       1

loop_
  _symmetry_equiv_pos_as_xyz
  'x, y, z'

loop_
  _atom_site_label
  _atom_site_occupancy
  _atom_site_fract_x
  _atom_site_fract_y
  _atom_site_fract_z
  _atom_site_thermal_displace_type
  _atom_site_B_iso_or_equiv
  _atom_site_type_symbol
  C1       1.0000 0.95245  0.62979  0.45281  Biso   1.000  C
  C2       1.0000 0.18266  0.72308  0.63901  Biso   1.000  C
  C3       1.0000 0.64982  0.64918  0.13885  Biso   1.000  C
  C4       1.0000 0.64966  0.29657  0.13889  Biso   1.000  C
  C5       1.0000 0.48528  0.70369  0.95297  Biso   1.000  C
  C6       1.0000 0.48545  0.05630  0.95293  Biso   1.000  C
  C7       1.0000 0.83505  0.88433  0.32996  Biso   1.000  C
  C8       1.0000 0.30006  0.46854  0.76186  Biso   1.000  C
  C9       1.0000 0.29999  0.10044  0.76185  Biso   1.000  C
  C10      1.0000 0.83511  0.25243  0.32997  Biso   1.000  C
