# generated using pymatgen
data_C
_symmetry_space_group_name_H-M   'P 1'
_cell_length_a   3.70906898
_cell_length_b   3.91108054
_cell_length_c   6.69287635
_cell_angle_alpha   99.18722277
_cell_angle_beta   95.84230419
_cell_angle_gamma   103.83698923
_symmetry_Int_Tables_number   1
_chemical_formula_structural   C
_chemical_formula_sum   C10
_cell_volume   92.06546099
_cell_formula_units_Z   10
loop_
 _symmetry_equiv_pos_site_id
 _symmetry_equiv_pos_as_xyz
  1  'x, y, z'
loop_
 _atom_site_type_symbol
 _atom_site_label
 _atom_site_symmetry_multiplicity
 _atom_site_fract_x
 _atom_site_fract_y
 _atom_site_fract_z
 _atom_site_occupancy
  C  C1  1  0.966715  0.626480  0.446806  1
  C  C2  1  0.168391  0.726387  0.645015  1
  C  C3  1  0.656395  0.647958  0.135542  1
  C  C4  1  0.656213  0.294157  0.135586  1
  C  C5  1  0.478710  0.704908  0.956277  1
  C  C6  1  0.478894  0.058710  0.956233  1
  C  C7  1  0.847188  0.883424  0.327394  1
  C  C8  1  0.287917  0.469443  0.764427  1
  C  C9  1  0.288422  0.102843  0.764308  1
  C  C10  1  0.846682  0.250025  0.327513  1
