# generated using pymatgen
data_C
_symmetry_space_group_name_H-M   'P 1'
_cell_length_a   4.09425719
_cell_length_b   4.19936166
_cell_length_c   5.40375059
_cell_angle_alpha   89.89452052
_cell_angle_beta   106.14138714
_cell_angle_gamma   110.71248895
_symmetry_Int_Tables_number   1
_chemical_formula_structural   C
_chemical_formula_sum   C9
_cell_volume   82.99463667
_cell_formula_units_Z   9
loop_
 _symmetry_equiv_pos_site_id
 _symmetry_equiv_pos_as_xyz
  1  'x, y, z'
loop_
 _atom_site_type_symbol
 _atom_site_label
 _atom_site_symmetry_multiplicity
 _atom_site_fract_x
 _atom_site_fract_y
 _atom_site_fract_z
 _atom_site_occupancy
  C  C1  1  0.737362  0.540852  0.482193  1
  C  C2  1  0.511331  0.201510  0.380975  1
  C  C3  1  0.010499  0.723765  0.370604  1
  C  C4  1  0.941035  0.837769  0.110188  1
  C  C5  1  0.638325  0.650827  0.898669  1
  C  C6  1  0.357499  0.368357  0.944622  1
  C  C7  1  0.255409  0.141056  0.120472  1
  C  C8  1  0.613038  0.718611  0.639018  1
  C  C9  1  0.396022  0.898312  0.508693  1
