# generated using pymatgen
data_C
_symmetry_space_group_name_H-M   'P 1'
_cell_length_a   2.53115235
_cell_length_b   2.59633389
_cell_length_c   6.08107992
_cell_angle_alpha   87.18879693
_cell_angle_beta   87.48837064
_cell_angle_gamma   86.18714805
_symmetry_Int_Tables_number   1
_chemical_formula_structural   C
_chemical_formula_sum   C6
_cell_volume   39.79369269
_cell_formula_units_Z   6
loop_
 _symmetry_equiv_pos_site_id
 _symmetry_equiv_pos_as_xyz
  1  'x, y, z'
loop_
 _atom_site_type_symbol
 _atom_site_label
 _atom_site_symmetry_multiplicity
 _atom_site_fract_x
 _atom_site_fract_y
 _atom_site_fract_z
 _atom_site_occupancy
  C  C1  1  0.349698  0.465649  0.767797  1
  C  C2  1  0.358852  0.487510  0.536130  1
  C  C3  1  0.883651  0.460331  0.198051  1
  C  C4  1  0.855165  0.928134  0.047979  1
  C  C5  1  0.874689  0.456333  0.423899  1
  C  C6  1  0.363197  -0.050266  0.900198  1
