# generated using pymatgen
data_C
_symmetry_space_group_name_H-M   'P 1'
_cell_length_a   2.67906438
_cell_length_b   4.15046618
_cell_length_c   4.30108420
_cell_angle_alpha   112.35517282
_cell_angle_beta   101.00429849
_cell_angle_gamma   106.66327932
_symmetry_Int_Tables_number   1
_chemical_formula_structural   C
_chemical_formula_sum   C6
_cell_volume   39.87152465
_cell_formula_units_Z   6
loop_
 _symmetry_equiv_pos_site_id
 _symmetry_equiv_pos_as_xyz
  1  'x, y, z'
loop_
 _atom_site_type_symbol
 _atom_site_label
 _atom_site_symmetry_multiplicity
 _atom_site_fract_x
 _atom_site_fract_y
 _atom_site_fract_z
 _atom_site_occupancy
  C  C1  1  0.485420  0.921822  0.664833  1
  C  C2  1  0.754524  0.268458  0.671104  1
  C  C3  1  0.153573  0.578501  0.994685  1
  C  C4  1  0.437034  0.911278  0.982270  1
  C  C5  1  0.669930  0.337364  0.351311  1
  C  C6  1  0.261652  0.546373  0.335390  1
