# generated using pymatgen
data_C
_symmetry_space_group_name_H-M   'P 1'
_cell_length_a   2.50967026
_cell_length_b   3.38038976
_cell_length_c   4.50834134
_cell_angle_alpha   82.79779319
_cell_angle_beta   81.37155596
_cell_angle_gamma   78.09261524
_symmetry_Int_Tables_number   1
_chemical_formula_structural   C
_chemical_formula_sum   C5
_cell_volume   36.82405335
_cell_formula_units_Z   5
loop_
 _symmetry_equiv_pos_site_id
 _symmetry_equiv_pos_as_xyz
  1  'x, y, z'
loop_
 _atom_site_type_symbol
 _atom_site_label
 _atom_site_symmetry_multiplicity
 _atom_site_fract_x
 _atom_site_fract_y
 _atom_site_fract_z
 _atom_site_occupancy
  C  C1  1  0.232015  0.819797  0.835119  1
  C  C2  1  0.374853  0.448482  0.976223  1
  C  C3  1  0.300472  -0.064059  0.525665  1
  C  C4  1  0.823409  0.002327  0.376246  1
  C  C5  1  0.902621  0.190252  0.056895  1
