data_image0
_cell_length_a       3.77308
_cell_length_b       2.84692
_cell_length_c       6.5033
_cell_angle_alpha    77.3566
_cell_angle_beta     85.2633
_cell_angle_gamma    67.8355

_symmetry_space_group_name_H-M    "P 1"
_symmetry_int_tables_number       1

loop_
  _symmetry_equiv_pos_as_xyz
  'x, y, z'

loop_
  _atom_site_label
  _atom_site_occupancy
  _atom_site_fract_x
  _atom_site_fract_y
  _atom_site_fract_z
  _atom_site_thermal_displace_type
  _atom_site_B_iso_or_equiv
  _atom_site_type_symbol
  C1       1.0000 0.12312  0.43596  0.49132  Biso   1.000  C
  C2       1.0000 0.12312  0.54803  0.26717  Biso   1.000  C
  C3       1.0000 0.62312  0.18596  0.99132  Biso   1.000  C
  C4       1.0000 0.62312  0.29803  0.76718  Biso   1.000  C
  C5       1.0000 0.46499  0.12188  0.61182  Biso   1.000  C
  C6       1.0000 0.78126  0.62954  0.61182  Biso   1.000  C
  C7       1.0000 0.96499  0.03767  0.11182  Biso   1.000  C
  C8       1.0000 0.28125  0.21375  0.11182  Biso   1.000  C
