# generated using pymatgen
data_C
_symmetry_space_group_name_H-M   'P 1'
_cell_length_a   2.55545080
_cell_length_b   4.18788793
_cell_length_c   4.47443361
_cell_angle_alpha   88.55525818
_cell_angle_beta   87.65737778
_cell_angle_gamma   87.40661428
_symmetry_Int_Tables_number   1
_chemical_formula_structural   C
_chemical_formula_sum   C8
_cell_volume   47.78300965
_cell_formula_units_Z   8
loop_
 _symmetry_equiv_pos_site_id
 _symmetry_equiv_pos_as_xyz
  1  'x, y, z'
loop_
 _atom_site_type_symbol
 _atom_site_label
 _atom_site_symmetry_multiplicity
 _atom_site_fract_x
 _atom_site_fract_y
 _atom_site_fract_z
 _atom_site_occupancy
  C  C1  1  0.269161  0.000036  0.317857  1
  C  C2  1  0.968607  0.169954  0.541554  1
  C  C3  1  0.871663  0.529283  0.515681  1
  C  C4  1  0.366106  0.640707  0.343730  1
  C  C5  1  0.363965  0.147015  0.010478  1
  C  C6  1  0.873804  0.022975  0.848933  1
  C  C7  1  0.869911  0.653207  0.845566  1
  C  C8  1  0.367857  0.516785  0.013845  1
