data_image0
_cell_length_a       2.65721
_cell_length_b       4.30359
_cell_length_c       4.99328
_cell_angle_alpha    85.2846
_cell_angle_beta     74.5637
_cell_angle_gamma    72.0207

_symmetry_space_group_name_H-M    "P 1"
_symmetry_int_tables_number       1

loop_
  _symmetry_equiv_pos_as_xyz
  'x, y, z'

loop_
  _atom_site_label
  _atom_site_occupancy
  _atom_site_fract_x
  _atom_site_fract_y
  _atom_site_fract_z
  _atom_site_thermal_displace_type
  _atom_site_B_iso_or_equiv
  _atom_site_type_symbol
  C1       1.0000 0.31009  0.83518  0.94785  Biso   1.000  C
  C2       1.0000 0.35345  0.49628  0.94785  Biso   1.000  C
  C3       1.0000 0.36689  0.34161  0.70183  Biso   1.000  C
  C4       1.0000 0.54267  0.98986  0.70184  Biso   1.000  C
  C5       1.0000 0.22553  0.49627  0.45585  Biso   1.000  C
  C6       1.0000 0.92994  0.83518  0.45583  Biso   1.000  C
  C7       1.0000 0.01594  0.04332  0.20185  Biso   1.000  C
  C8       1.0000 0.39354  0.28813  0.20184  Biso   1.000  C
