# generated using pymatgen
data_C
_symmetry_space_group_name_H-M   'P 1'
_cell_length_a   2.73703280
_cell_length_b   4.28273504
_cell_length_c   4.99170942
_cell_angle_alpha   85.04229705
_cell_angle_beta   75.98951508
_cell_angle_gamma   70.99180265
_symmetry_Int_Tables_number   1
_chemical_formula_structural   C
_chemical_formula_sum   C8
_cell_volume   53.67458408
_cell_formula_units_Z   8
loop_
 _symmetry_equiv_pos_site_id
 _symmetry_equiv_pos_as_xyz
  1  'x, y, z'
loop_
 _atom_site_type_symbol
 _atom_site_label
 _atom_site_symmetry_multiplicity
 _atom_site_fract_x
 _atom_site_fract_y
 _atom_site_fract_z
 _atom_site_occupancy
  C  C1  1  0.351603  0.819154  0.935475  1
  C  C2  1  0.354995  0.493244  0.941878  1
  C  C3  1  0.364332  0.333577  0.701746  1
  C  C4  1  0.563853  0.984370  0.702892  1
  C  C5  1  0.213649  0.500694  0.459473  1
  C  C6  1  0.935597  0.840941  0.459921  1
  C  C7  1  0.984827  0.066521  0.209174  1
  C  C8  1  0.369204  0.287326  0.204184  1
