data_image0
_cell_length_a       2.51855
_cell_length_b       3.74679
_cell_length_c       4.28991
_cell_angle_alpha    104.615
_cell_angle_beta     90
_cell_angle_gamma    109.639

_symmetry_space_group_name_H-M    "P 1"
_symmetry_int_tables_number       1

loop_
  _symmetry_equiv_pos_as_xyz
  'x, y, z'

loop_
  _atom_site_label
  _atom_site_occupancy
  _atom_site_fract_x
  _atom_site_fract_y
  _atom_site_fract_z
  _atom_site_thermal_displace_type
  _atom_site_B_iso_or_equiv
  _atom_site_type_symbol
  C1       1.0000 0.41446  0.43592  0.57115  Biso   1.000  C
  C2       1.0000 0.21541  0.03783  0.64631  Biso   1.000  C
  C3       1.0000 0.73396  0.07492  0.86660  Biso   1.000  C
  C4       1.0000 0.53491  0.67683  0.94176  Biso   1.000  C
  C5       1.0000 0.99240  0.59180  0.43924  Biso   1.000  C
  C6       1.0000 0.95697  0.52094  0.07367  Biso   1.000  C
