# generated using pymatgen
data_C
_symmetry_space_group_name_H-M   'P 1'
_cell_length_a   2.55226544
_cell_length_b   3.76546655
_cell_length_c   4.23704702
_cell_angle_alpha   104.27190812
_cell_angle_beta   90.00000000
_cell_angle_gamma   109.81013077
_symmetry_Int_Tables_number   1
_chemical_formula_structural   C
_chemical_formula_sum   C6
_cell_volume   36.97166185
_cell_formula_units_Z   6
loop_
 _symmetry_equiv_pos_site_id
 _symmetry_equiv_pos_as_xyz
  1  'x, y, z'
loop_
 _atom_site_type_symbol
 _atom_site_label
 _atom_site_symmetry_multiplicity
 _atom_site_fract_x
 _atom_site_fract_y
 _atom_site_fract_z
 _atom_site_occupancy
  C  C1  1  0.410445  0.427895  0.566045  1
  C  C2  1  0.212430  0.031864  0.639305  1
  C  C3  1  0.736939  0.080880  0.873599  1
  C  C4  1  0.538923  0.684850  0.946862  1
  C  C5  1  0.989004  0.585010  0.436918  1
  C  C6  1  0.960365  0.527733  0.075986  1
