data_image0
_cell_length_a       2.65716
_cell_length_b       4.30358
_cell_length_c       4.99323
_cell_angle_alpha    85.2883
_cell_angle_beta     74.5691
_cell_angle_gamma    72.0182

_symmetry_space_group_name_H-M    "P 1"
_symmetry_int_tables_number       1

loop_
  _symmetry_equiv_pos_as_xyz
  'x, y, z'

loop_
  _atom_site_label
  _atom_site_occupancy
  _atom_site_fract_x
  _atom_site_fract_y
  _atom_site_fract_z
  _atom_site_thermal_displace_type
  _atom_site_B_iso_or_equiv
  _atom_site_type_symbol
  C1       1.0000 0.08697  0.18412  0.62860  Biso   1.000  C
  C2       1.0000 0.38254  0.84521  0.62860  Biso   1.000  C
  C3       1.0000 0.95909  0.18412  0.13659  Biso   1.000  C
  C4       1.0000 0.00243  0.84521  0.13659  Biso   1.000  C
  C5       1.0000 0.94570  0.33879  0.38259  Biso   1.000  C
  C6       1.0000 0.76982  0.69054  0.38259  Biso   1.000  C
  C7       1.0000 0.91896  0.39226  0.88259  Biso   1.000  C
  C8       1.0000 0.29656  0.63706  0.88259  Biso   1.000  C
