# generated using pymatgen
data_C
_symmetry_space_group_name_H-M   'P 1'
_cell_length_a   2.73740728
_cell_length_b   4.27075213
_cell_length_c   5.02056456
_cell_angle_alpha   84.98768173
_cell_angle_beta   74.17979987
_cell_angle_gamma   71.30786016
_symmetry_Int_Tables_number   1
_chemical_formula_structural   C
_chemical_formula_sum   C8
_cell_volume   53.49251549
_cell_formula_units_Z   8
loop_
 _symmetry_equiv_pos_site_id
 _symmetry_equiv_pos_as_xyz
  1  'x, y, z'
loop_
 _atom_site_type_symbol
 _atom_site_label
 _atom_site_symmetry_multiplicity
 _atom_site_fract_x
 _atom_site_fract_y
 _atom_site_fract_z
 _atom_site_occupancy
  C  C1  1  0.092020  0.185182  0.624448  1
  C  C2  1  0.381643  0.844145  0.624448  1
  C  C3  1  0.952979  0.185182  0.140738  1
  C  C4  1  0.004393  0.844145  0.140738  1
  C  C5  1  0.944956  0.340268  0.382592  1
  C  C6  1  0.770560  0.689059  0.382592  1
  C  C7  1  0.913653  0.402878  0.882592  1
  C  C8  1  0.301866  0.626449  0.882592  1
