# generated using pymatgen
data_C
_symmetry_space_group_name_H-M   'P 1'
_cell_length_a   2.47245009
_cell_length_b   3.36769847
_cell_length_c   6.86629749
_cell_angle_alpha   111.60950013
_cell_angle_beta   105.66478740
_cell_angle_gamma   82.52332726
_symmetry_Int_Tables_number   1
_chemical_formula_structural   C
_chemical_formula_sum   C7
_cell_volume   51.14937108
_cell_formula_units_Z   7
loop_
 _symmetry_equiv_pos_site_id
 _symmetry_equiv_pos_as_xyz
  1  'x, y, z'
loop_
 _atom_site_type_symbol
 _atom_site_label
 _atom_site_symmetry_multiplicity
 _atom_site_fract_x
 _atom_site_fract_y
 _atom_site_fract_z
 _atom_site_occupancy
  C  C1  1  0.599228  0.022471  0.053630  1
  C  C2  1  0.416466  0.755531  0.836041  1
  C  C3  1  0.861639  0.704311  0.463385  1
  C  C4  1  0.305945  0.532064  0.360384  1
  C  C5  1  0.156672  0.192682  0.158714  1
  C  C6  1  0.044245  0.046496  0.684437  1
  C  C7  1  0.518664  0.333727  0.731295  1
