# generated using pymatgen
data_C
_symmetry_space_group_name_H-M   'P 1'
_cell_length_a   2.81117883
_cell_length_b   3.62203736
_cell_length_c   6.20751576
_cell_angle_alpha   90.00000000
_cell_angle_beta   90.00000000
_cell_angle_gamma   90.00000000
_symmetry_Int_Tables_number   1
_chemical_formula_structural   C
_chemical_formula_sum   C8
_cell_volume   63.20613431
_cell_formula_units_Z   8
loop_
 _symmetry_equiv_pos_site_id
 _symmetry_equiv_pos_as_xyz
  1  'x, y, z'
loop_
 _atom_site_type_symbol
 _atom_site_label
 _atom_site_symmetry_multiplicity
 _atom_site_fract_x
 _atom_site_fract_y
 _atom_site_fract_z
 _atom_site_occupancy
  C  C1  1  0.046456  0.149101  0.471137  1
  C  C2  1  0.158234  0.469399  0.588680  1
  C  C3  1  0.434679  0.469399  0.789322  1
  C  C4  1  0.546458  0.149101  0.906865  1
  C  C5  1  0.546458  0.149101  0.138450  1
  C  C6  1  0.658233  0.828804  0.789322  1
  C  C7  1  0.934679  0.828804  0.588680  1
  C  C8  1  0.046456  0.149101  0.239552  1
