# generated using pymatgen
data_C
_symmetry_space_group_name_H-M   'P 1'
_cell_length_a   3.99184481
_cell_length_b   4.81068856
_cell_length_c   5.80348698
_cell_angle_alpha   90.00000000
_cell_angle_beta   102.69426957
_cell_angle_gamma   90.00000000
_symmetry_Int_Tables_number   1
_chemical_formula_structural   C
_chemical_formula_sum   C11
_cell_volume   108.72322957
_cell_formula_units_Z   11
loop_
 _symmetry_equiv_pos_site_id
 _symmetry_equiv_pos_as_xyz
  1  'x, y, z'
loop_
 _atom_site_type_symbol
 _atom_site_label
 _atom_site_symmetry_multiplicity
 _atom_site_fract_x
 _atom_site_fract_y
 _atom_site_fract_z
 _atom_site_occupancy
  C  C1  1  0.553712  0.823541  0.340720  1
  C  C2  1  0.494509  0.823541  0.569034  1
  C  C3  1  0.719881  0.323542  0.281057  1
  C  C4  1  0.575688  0.067664  0.194601  1
  C  C5  1  0.575688  0.579420  0.194601  1
  C  C6  1  0.328341  0.323542  0.628699  1
  C  C7  1  0.472533  0.067664  0.715155  1
  C  C8  1  0.472533  0.579420  0.715155  1
  C  C9  1  0.024111  0.323542  0.454878  1
  C  C10  1  0.524110  0.668622  0.954877  1
  C  C11  1  0.524110  0.978461  0.954877  1
