# generated using pymatgen
data_C
_symmetry_space_group_name_H-M   'P 1'
_cell_length_a   2.54355723
_cell_length_b   2.54355723
_cell_length_c   6.40874531
_cell_angle_alpha   85.05592635
_cell_angle_beta   85.05592633
_cell_angle_gamma   64.37988786
_symmetry_Int_Tables_number   1
_chemical_formula_structural   C
_chemical_formula_sum   C6
_cell_volume   37.19162184
_cell_formula_units_Z   6
loop_
 _symmetry_equiv_pos_site_id
 _symmetry_equiv_pos_as_xyz
  1  'x, y, z'
loop_
 _atom_site_type_symbol
 _atom_site_label
 _atom_site_symmetry_multiplicity
 _atom_site_fract_x
 _atom_site_fract_y
 _atom_site_fract_z
 _atom_site_occupancy
  C  C1  1  0.752312  0.302624  0.773369  1
  C  C2  1  0.770250  0.818144  0.665364  1
  C  C3  1  0.319973  0.870284  0.333076  1
  C  C4  1  0.804449  0.852349  0.441081  1
  C  C5  1  0.709499  0.264856  0.011932  1
  C  C6  1  0.357742  0.913098  0.094513  1
