# generated using pymatgen
data_C
_symmetry_space_group_name_H-M   'P 1'
_cell_length_a   2.52005596
_cell_length_b   2.64554771
_cell_length_c   6.25482566
_cell_angle_alpha   82.55098182
_cell_angle_beta   78.49141233
_cell_angle_gamma   85.96754923
_symmetry_Int_Tables_number   1
_chemical_formula_structural   C
_chemical_formula_sum   C6
_cell_volume   40.47479536
_cell_formula_units_Z   6
loop_
 _symmetry_equiv_pos_site_id
 _symmetry_equiv_pos_as_xyz
  1  'x, y, z'
loop_
 _atom_site_type_symbol
 _atom_site_label
 _atom_site_symmetry_multiplicity
 _atom_site_fract_x
 _atom_site_fract_y
 _atom_site_fract_z
 _atom_site_occupancy
  C  C1  1  0.157578  0.656357  0.888084  1
  C  C2  1  0.076512  0.535706  0.117198  1
  C  C3  1  0.819118  0.842568  0.552672  1
  C  C4  1  0.447555  -0.072920  0.396265  1
  C  C5  1  0.703375  0.742572  0.776525  1
  C  C6  1  0.515300  0.473332  0.251824  1
