# generated using pymatgen
data_C
_symmetry_space_group_name_H-M   'P 1'
_cell_length_a   2.50326174
_cell_length_b   4.23005946
_cell_length_c   6.23693045
_cell_angle_alpha   109.82289651
_cell_angle_beta   90.00000003
_cell_angle_gamma   90.00000000
_symmetry_Int_Tables_number   1
_chemical_formula_structural   C
_chemical_formula_sum   C8
_cell_volume   62.12919203
_cell_formula_units_Z   8
loop_
 _symmetry_equiv_pos_site_id
 _symmetry_equiv_pos_as_xyz
  1  'x, y, z'
loop_
 _atom_site_type_symbol
 _atom_site_label
 _atom_site_symmetry_multiplicity
 _atom_site_fract_x
 _atom_site_fract_y
 _atom_site_fract_z
 _atom_site_occupancy
  C  C1  1  0.901608  0.418171  0.661795  1
  C  C2  1  0.901608  0.106610  0.701710  1
  C  C3  1  0.401608  0.589120  0.677316  1
  C  C4  1  0.401608  -0.031484  0.772079  1
  C  C5  1  0.901608  0.313019  0.114527  1
  C  C6  1  0.901608  0.664494  0.154443  1
  C  C7  1  0.401608  0.819922  0.138920  1
  C  C8  1  0.401608  0.104555  0.044157  1
