# generated using pymatgen
data_C
_symmetry_space_group_name_H-M   'P 1'
_cell_length_a   2.50274292
_cell_length_b   3.46883986
_cell_length_c   10.27051877
_cell_angle_alpha   82.41389920
_cell_angle_beta   85.04061933
_cell_angle_gamma   71.85746711
_symmetry_Int_Tables_number   1
_chemical_formula_structural   C
_chemical_formula_sum   C10
_cell_volume   83.89287940
_cell_formula_units_Z   10
loop_
 _symmetry_equiv_pos_site_id
 _symmetry_equiv_pos_as_xyz
  1  'x, y, z'
loop_
 _atom_site_type_symbol
 _atom_site_label
 _atom_site_symmetry_multiplicity
 _atom_site_fract_x
 _atom_site_fract_y
 _atom_site_fract_z
 _atom_site_occupancy
  C  C1  1  0.424311  0.212102  0.339562  1
  C  C2  1  0.405782  0.144026  0.475306  1
  C  C3  1  0.463366  0.233215  0.203531  1
  C  C4  1  0.974589  0.267611  0.134611  1
  C  C5  1  0.339640  0.066252  0.749062  1
  C  C6  1  0.862028  0.073743  0.680716  1
  C  C7  1  0.894721  0.115217  0.541991  1
  C  C8  1  0.280380  0.005923  0.899392  1
  C  C9  1  0.862111  0.773607  0.939324  1
  C  C10  1  1.011075  0.386646  0.997352  1
