# generated using pymatgen
data_C
_symmetry_space_group_name_H-M   'P 1'
_cell_length_a   3.40303025
_cell_length_b   4.46778588
_cell_length_c   5.22558443
_cell_angle_alpha   104.97967033
_cell_angle_beta   98.33807929
_cell_angle_gamma   100.52117004
_symmetry_Int_Tables_number   1
_chemical_formula_structural   C
_chemical_formula_sum   C10
_cell_volume   73.89817989
_cell_formula_units_Z   10
loop_
 _symmetry_equiv_pos_site_id
 _symmetry_equiv_pos_as_xyz
  1  'x, y, z'
loop_
 _atom_site_type_symbol
 _atom_site_label
 _atom_site_symmetry_multiplicity
 _atom_site_fract_x
 _atom_site_fract_y
 _atom_site_fract_z
 _atom_site_occupancy
  C  C1  1  0.296262  0.863406  0.642874  1
  C  C2  1  0.117909  0.101926  0.803863  1
  C  C3  1  0.410004  0.611431  0.747394  1
  C  C4  1  0.053940  0.392219  0.753966  1
  C  C5  1  0.791309  0.244492  0.209068  1
  C  C6  1  0.416211  0.058305  0.239890  1
  C  C7  1  0.874485  0.568437  0.179659  1
  C  C8  1  0.772168  0.550148  0.888306  1
  C  C9  1  0.229493  0.818057  0.358301  1
  C  C10  1  0.077035  0.101179  0.071870  1
