# generated using pymatgen
data_C
_symmetry_space_group_name_H-M   'P 1'
_cell_length_a   3.48700203
_cell_length_b   4.25227229
_cell_length_c   4.84102037
_cell_angle_alpha   83.59571768
_cell_angle_beta   68.89049619
_cell_angle_gamma   71.95813352
_symmetry_Int_Tables_number   1
_chemical_formula_structural   C
_chemical_formula_sum   C8
_cell_volume   63.67155745
_cell_formula_units_Z   8
loop_
 _symmetry_equiv_pos_site_id
 _symmetry_equiv_pos_as_xyz
  1  'x, y, z'
loop_
 _atom_site_type_symbol
 _atom_site_label
 _atom_site_symmetry_multiplicity
 _atom_site_fract_x
 _atom_site_fract_y
 _atom_site_fract_z
 _atom_site_occupancy
  C  C1  1  0.386586  0.003834  0.296303  1
  C  C2  1  0.198495  0.155770  0.082737  1
  C  C3  1  0.591712  0.655769  0.296303  1
  C  C4  1  -0.006633  0.503835  0.082737  1
  C  C5  1  0.385026  0.489435  0.551969  1
  C  C6  1  0.337606  0.170168  0.551969  1
  C  C7  1  0.247474  -0.010564  0.827072  1
  C  C8  1  0.200054  0.670169  0.827072  1
