data_image0
_cell_length_a       3.25432
_cell_length_b       4.30068
_cell_length_c       4.89379
_cell_angle_alpha    84.6598
_cell_angle_beta     70.5797
_cell_angle_gamma    73.745

_symmetry_space_group_name_H-M    "P 1"
_symmetry_int_tables_number       1

loop_
  _symmetry_equiv_pos_as_xyz
  'x, y, z'

loop_
  _atom_site_label
  _atom_site_occupancy
  _atom_site_fract_x
  _atom_site_fract_y
  _atom_site_fract_z
  _atom_site_thermal_displace_type
  _atom_site_B_iso_or_equiv
  _atom_site_type_symbol
  C1       1.0000 0.37931  0.00548  0.29680  Biso   1.000  C
  C2       1.0000 0.20577  0.15413  0.08224  Biso   1.000  C
  C3       1.0000 0.59849  0.65413  0.29680  Biso   1.000  C
  C4       1.0000 0.98659  0.50548  0.08224  Biso   1.000  C
  C5       1.0000 0.38222  0.49168  0.56013  Biso   1.000  C
  C6       1.0000 0.33226  0.16792  0.56013  Biso   1.000  C
  C7       1.0000 0.25282  0.99168  0.81891  Biso   1.000  C
  C8       1.0000 0.20286  0.66792  0.81891  Biso   1.000  C
