# generated using pymatgen
data_C
_symmetry_space_group_name_H-M   'P 1'
_cell_length_a   3.76548915
_cell_length_b   3.71131993
_cell_length_c   4.28961527
_cell_angle_alpha   89.99973571
_cell_angle_beta   89.99998535
_cell_angle_gamma   98.53405078
_symmetry_Int_Tables_number   1
_chemical_formula_structural   C
_chemical_formula_sum   C8
_cell_volume   59.28335082
_cell_formula_units_Z   8
loop_
 _symmetry_equiv_pos_site_id
 _symmetry_equiv_pos_as_xyz
  1  'x, y, z'
loop_
 _atom_site_type_symbol
 _atom_site_label
 _atom_site_symmetry_multiplicity
 _atom_site_fract_x
 _atom_site_fract_y
 _atom_site_fract_z
 _atom_site_occupancy
  C  C1  1  0.310461  0.258771  0.626424  1
  C  C2  1  0.310458  0.258768  0.946595  1
  C  C3  1  0.539574  0.539157  0.476322  1
  C  C4  1  0.081346  0.978386  0.476322  1
  C  C5  1  0.810461  0.758772  0.649496  1
  C  C6  1  0.810461  0.758770  0.980939  1
  C  C7  1  0.158620  0.874215  0.150923  1
  C  C8  1  0.462303  0.643335  0.150925  1
