# generated using pymatgen
data_C
_symmetry_space_group_name_H-M   'P 1'
_cell_length_a   2.50664978
_cell_length_b   2.60587115
_cell_length_c   8.48374823
_cell_angle_alpha   91.43905788
_cell_angle_beta   89.99999716
_cell_angle_gamma   90.00000570
_symmetry_Int_Tables_number   1
_chemical_formula_structural   C
_chemical_formula_sum   C9
_cell_volume   55.39841916
_cell_formula_units_Z   9
loop_
 _symmetry_equiv_pos_site_id
 _symmetry_equiv_pos_as_xyz
  1  'x, y, z'
loop_
 _atom_site_type_symbol
 _atom_site_label
 _atom_site_symmetry_multiplicity
 _atom_site_fract_x
 _atom_site_fract_y
 _atom_site_fract_z
 _atom_site_occupancy
  C  C1  1  0.820059  0.404509  0.512933  1
  C  C2  1  0.820059  0.552063  0.668955  1
  C  C3  1  0.820059  0.013914  0.778150  1
  C  C4  1  0.320058  0.290793  0.434808  1
  C  C5  1  0.320057  0.024299  0.878552  1
  C  C6  1  0.820059  0.474173  0.091499  1
  C  C7  1  0.320057  0.466156  -0.007080  1
  C  C8  1  0.820059  0.901253  0.207690  1
  C  C9  1  0.320058  0.957131  0.299874  1
