# generated using pymatgen
data_C
_symmetry_space_group_name_H-M   'P 1'
_cell_length_a   3.60288954
_cell_length_b   4.31242226
_cell_length_c   6.57831361
_cell_angle_alpha   77.84864829
_cell_angle_beta   79.87989210
_cell_angle_gamma   76.31002879
_symmetry_Int_Tables_number   1
_chemical_formula_structural   C
_chemical_formula_sum   C11
_cell_volume   96.22329335
_cell_formula_units_Z   11
loop_
 _symmetry_equiv_pos_site_id
 _symmetry_equiv_pos_as_xyz
  1  'x, y, z'
loop_
 _atom_site_type_symbol
 _atom_site_label
 _atom_site_symmetry_multiplicity
 _atom_site_fract_x
 _atom_site_fract_y
 _atom_site_fract_z
 _atom_site_occupancy
  C  C1  1  0.091124  0.025735  0.904588  1
  C  C2  1  0.341724  0.782608  0.802868  1
  C  C3  1  0.551354  0.482426  0.901298  1
  C  C4  1  0.904797  0.343426  0.556515  1
  C  C5  1  0.854210  0.285159  0.775583  1
  C  C6  1  0.178333  0.121973  0.450516  1
  C  C7  1  0.664982  0.624381  0.469053  1
  C  C8  1  0.389337  0.848084  0.573433  1
  C  C9  1  0.239837  0.171103  0.228556  1
  C  C10  1  0.566298  0.290154  0.113718  1
  C  C11  1  0.971794  0.108269  0.114831  1
