data_image0
_cell_length_a       3.89891
_cell_length_b       3.73229
_cell_length_c       6.0908
_cell_angle_alpha    88.7839
_cell_angle_beta     83.7825
_cell_angle_gamma    79.5635

_symmetry_space_group_name_H-M    "P 1"
_symmetry_int_tables_number       1

loop_
  _symmetry_equiv_pos_as_xyz
  'x, y, z'

loop_
  _atom_site_label
  _atom_site_occupancy
  _atom_site_fract_x
  _atom_site_fract_y
  _atom_site_fract_z
  _atom_site_thermal_displace_type
  _atom_site_B_iso_or_equiv
  _atom_site_type_symbol
  C1       1.0000 0.06754  0.06183  0.89204  Biso   1.000  C
  C2       1.0000 0.34167  0.78618  0.80133  Biso   1.000  C
  C3       1.0000 0.56901  0.52800  0.91985  Biso   1.000  C
  C4       1.0000 0.86075  0.29938  0.54639  Biso   1.000  C
  C5       1.0000 0.81733  0.29380  0.77896  Biso   1.000  C
  C6       1.0000 0.17814  0.08369  0.45447  Biso   1.000  C
  C7       1.0000 0.62629  0.53158  0.42104  Biso   1.000  C
  C8       1.0000 0.38251  0.79024  0.55674  Biso   1.000  C
  C9       1.0000 0.28772  0.17512  0.23210  Biso   1.000  C
  C10      1.0000 0.61388  0.36592  0.17588  Biso   1.000  C
  C11      1.0000 0.00896  0.16760  0.11214  Biso   1.000  C
