# generated using pymatgen
data_C
_symmetry_space_group_name_H-M   'P 1'
_cell_length_a   2.45851501
_cell_length_b   5.02989361
_cell_length_c   4.38811267
_cell_angle_alpha   87.08448005
_cell_angle_beta   89.99999823
_cell_angle_gamma   104.14580708
_symmetry_Int_Tables_number   1
_chemical_formula_structural   C
_chemical_formula_sum   C6
_cell_volume   52.54582470
_cell_formula_units_Z   6
loop_
 _symmetry_equiv_pos_site_id
 _symmetry_equiv_pos_as_xyz
  1  'x, y, z'
loop_
 _atom_site_type_symbol
 _atom_site_label
 _atom_site_symmetry_multiplicity
 _atom_site_fract_x
 _atom_site_fract_y
 _atom_site_fract_z
 _atom_site_occupancy
  C  C1  1  0.101765  0.195889  0.305492  1
  C  C2  1  0.212853  0.418065  0.083213  1
  C  C3  1  0.546186  0.084732  0.416547  1
  C  C4  1  0.435099  0.862556  0.638826  1
  C  C5  1  0.768431  0.529222  0.972159  1
  C  C6  1  0.879519  0.751398  0.749880  1
