# generated using pymatgen
data_C
_symmetry_space_group_name_H-M   'P 1'
_cell_length_a   3.50276891
_cell_length_b   4.83606690
_cell_length_c   4.83606690
_cell_angle_alpha   59.39328458
_cell_angle_beta   68.76767036
_cell_angle_gamma   68.76767036
_symmetry_Int_Tables_number   1
_chemical_formula_structural   C
_chemical_formula_sum   C8
_cell_volume   64.08827689
_cell_formula_units_Z   8
loop_
 _symmetry_equiv_pos_site_id
 _symmetry_equiv_pos_as_xyz
  1  'x, y, z'
loop_
 _atom_site_type_symbol
 _atom_site_label
 _atom_site_symmetry_multiplicity
 _atom_site_fract_x
 _atom_site_fract_y
 _atom_site_fract_z
 _atom_site_occupancy
  C  C1  1  0.145023  0.306109  0.173522  1
  C  C2  1  -0.043757  0.494889  0.362302  1
  C  C3  1  0.351080  0.972260  0.339672  1
  C  C4  1  0.750184  0.828740  0.196151  1
  C  C5  1  0.145021  0.806109  0.673523  1
  C  C6  1  -0.043758  0.994891  0.862301  1
  C  C7  1  0.106663  0.472260  0.839671  1
  C  C8  1  -0.005400  0.328739  0.696150  1
