# generated using pymatgen
data_C
_symmetry_space_group_name_H-M   'P 1'
_cell_length_a   2.49073997
_cell_length_b   3.39778268
_cell_length_c   4.56457534
_cell_angle_alpha   68.14922851
_cell_angle_beta   85.46555616
_cell_angle_gamma   77.73615542
_symmetry_Int_Tables_number   1
_chemical_formula_structural   C
_chemical_formula_sum   C6
_cell_volume   35.03644289
_cell_formula_units_Z   6
loop_
 _symmetry_equiv_pos_site_id
 _symmetry_equiv_pos_as_xyz
  1  'x, y, z'
loop_
 _atom_site_type_symbol
 _atom_site_label
 _atom_site_symmetry_multiplicity
 _atom_site_fract_x
 _atom_site_fract_y
 _atom_site_fract_z
 _atom_site_occupancy
  C  C1  1  0.080916  0.651772  0.225784  1
  C  C2  1  0.650916  0.380388  0.225784  1
  C  C3  1  0.150917  0.715337  0.555884  1
  C  C4  1  0.580917  -0.013279  0.555884  1
  C  C5  1  0.365915  0.235739  0.786465  1
  C  C6  1  0.865918  0.131370  -0.004798  1
