# generated using pymatgen
data_C
_symmetry_space_group_name_H-M   'P 1'
_cell_length_a   3.65790094
_cell_length_b   3.72677663
_cell_length_c   6.51928403
_cell_angle_alpha   79.46208378
_cell_angle_beta   78.17454772
_cell_angle_gamma   79.55775763
_symmetry_Int_Tables_number   1
_chemical_formula_structural   C
_chemical_formula_sum   C11
_cell_volume   84.55895375
_cell_formula_units_Z   11
loop_
 _symmetry_equiv_pos_site_id
 _symmetry_equiv_pos_as_xyz
  1  'x, y, z'
loop_
 _atom_site_type_symbol
 _atom_site_label
 _atom_site_symmetry_multiplicity
 _atom_site_fract_x
 _atom_site_fract_y
 _atom_site_fract_z
 _atom_site_occupancy
  C  C1  1  0.655645  0.878250  0.148680  1
  C  C2  1  0.344524  0.091154  0.248475  1
  C  C3  1  0.852238  0.573631  0.257518  1
  C  C4  1  0.013311  0.326279  0.925233  1
  C  C5  1  0.838523  0.002757  0.934411  1
  C  C6  1  0.110264  0.342273  0.123431  1
  C  C7  1  0.311537  0.835542  0.636853  1
  C  C8  1  0.697109  0.658484  0.639106  1
  C  C9  1  0.895177  0.446421  0.475315  1
  C  C10  1  0.209362  0.126861  0.470977  1
  C  C11  1  0.959009  0.704474  0.786720  1
