# generated using pymatgen
data_C
_symmetry_space_group_name_H-M   'P 1'
_cell_length_a   4.31832551
_cell_length_b   3.54070113
_cell_length_c   5.83028301
_cell_angle_alpha   72.32319030
_cell_angle_beta   81.49501625
_cell_angle_gamma   60.85227668
_symmetry_Int_Tables_number   1
_chemical_formula_structural   C
_chemical_formula_sum   C9
_cell_volume   74.17979750
_cell_formula_units_Z   9
loop_
 _symmetry_equiv_pos_site_id
 _symmetry_equiv_pos_as_xyz
  1  'x, y, z'
loop_
 _atom_site_type_symbol
 _atom_site_label
 _atom_site_symmetry_multiplicity
 _atom_site_fract_x
 _atom_site_fract_y
 _atom_site_fract_z
 _atom_site_occupancy
  C  C1  1  0.029466  0.978341  0.353814  1
  C  C2  1  0.240536  0.519218  0.353814  1
  C  C3  1  0.453125  0.267857  0.562837  1
  C  C4  1  -0.183125  1.020684  0.562837  1
  C  C5  1  -0.030605  0.721602  0.786673  1
  C  C6  1  0.300607  0.343102  0.786673  1
  C  C7  1  0.453444  0.090912  0.027019  1
  C  C8  1  -0.183445  0.733445  0.027019  1
  C  C9  1  0.134999  0.325399  0.200580  1
