data_image0
_cell_length_a       3.59864
_cell_length_b       3.50347
_cell_length_c       6.05139
_cell_angle_alpha    73.1717
_cell_angle_beta     84.0109
_cell_angle_gamma    68.8772

_symmetry_space_group_name_H-M    "P 1"
_symmetry_int_tables_number       1

loop_
  _symmetry_equiv_pos_as_xyz
  'x, y, z'

loop_
  _atom_site_label
  _atom_site_occupancy
  _atom_site_fract_x
  _atom_site_fract_y
  _atom_site_fract_z
  _atom_site_thermal_displace_type
  _atom_site_B_iso_or_equiv
  _atom_site_type_symbol
  C1       1.0000 0.02639  0.95816  0.35862  Biso   1.000  C
  C2       1.0000 0.24360  0.53459  0.35862  Biso   1.000  C
  C3       1.0000 0.44891  0.29157  0.57404  Biso   1.000  C
  C4       1.0000 0.82110  0.98578  0.57404  Biso   1.000  C
  C5       1.0000 0.95983  0.70281  0.79114  Biso   1.000  C
  C6       1.0000 0.31016  0.35741  0.79114  Biso   1.000  C
  C7       1.0000 0.46274  0.10630  0.01421  Biso   1.000  C
  C8       1.0000 0.80727  0.73086  0.01421  Biso   1.000  C
  C9       1.0000 0.13500  0.33307  0.18524  Biso   1.000  C
