data_image0
_cell_length_a       3.80613
_cell_length_b       3.37115
_cell_length_c       6.27123
_cell_angle_alpha    84.0054
_cell_angle_beta     92.1318
_cell_angle_gamma    81.6538

_symmetry_space_group_name_H-M    "P 1"
_symmetry_int_tables_number       1

loop_
  _symmetry_equiv_pos_as_xyz
  'x, y, z'

loop_
  _atom_site_label
  _atom_site_occupancy
  _atom_site_fract_x
  _atom_site_fract_y
  _atom_site_fract_z
  _atom_site_thermal_displace_type
  _atom_site_B_iso_or_equiv
  _atom_site_type_symbol
  C1       1.0000 0.70842  0.00346  0.05326  Biso   1.000  C
  C2       1.0000 0.07845  0.81247  0.01931  Biso   1.000  C
  C3       1.0000 0.37897  0.04832  0.94592  Biso   1.000  C
  C4       1.0000 0.67999  0.05402  0.26413  Biso   1.000  C
  C5       1.0000 0.85529  0.88419  0.61561  Biso   1.000  C
  C6       1.0000 0.06503  0.65168  0.79261  Biso   1.000  C
  C7       1.0000 0.53748  0.20002  0.59047  Biso   1.000  C
  C8       1.0000 0.17627  0.60480  0.26945  Biso   1.000  C
  C9       1.0000 0.94179  0.81550  0.39973  Biso   1.000  C
  C10      1.0000 0.44365  0.31009  0.36641  Biso   1.000  C
  C11      1.0000 0.32419  0.32385  0.75700  Biso   1.000  C
