data_image0
_cell_length_a       4.02626
_cell_length_b       3.77347
_cell_length_c       4.40247
_cell_angle_alpha    90.0002
_cell_angle_beta     90.0037
_cell_angle_gamma    76.7328

_symmetry_space_group_name_H-M    "P 1"
_symmetry_int_tables_number       1

loop_
  _symmetry_equiv_pos_as_xyz
  'x, y, z'

loop_
  _atom_site_label
  _atom_site_occupancy
  _atom_site_fract_x
  _atom_site_fract_y
  _atom_site_fract_z
  _atom_site_thermal_displace_type
  _atom_site_B_iso_or_equiv
  _atom_site_type_symbol
  C1       1.0000 0.68886  0.96607  0.20965  Biso   1.000  C
  C2       1.0000 0.99181  0.74904  0.14312  Biso   1.000  C
  C3       1.0000 0.38590  0.18308  0.14313  Biso   1.000  C
  C4       1.0000 0.24042  0.13374  0.83179  Biso   1.000  C
  C5       1.0000 0.18886  0.46607  0.64798  Biso   1.000  C
  C6       1.0000 0.13728  0.79839  0.83178  Biso   1.000  C
  C7       1.0000 0.18886  0.46606  0.32822  Biso   1.000  C
