# generated using pymatgen
data_C
_symmetry_space_group_name_H-M   'P 1'
_cell_length_a   4.64073533
_cell_length_b   3.58388296
_cell_length_c   4.27794434
_cell_angle_alpha   90.00000001
_cell_angle_beta   90.00000000
_cell_angle_gamma   72.34694340
_symmetry_Int_Tables_number   1
_chemical_formula_structural   C
_chemical_formula_sum   C7
_cell_volume   67.79969675
_cell_formula_units_Z   7
loop_
 _symmetry_equiv_pos_site_id
 _symmetry_equiv_pos_as_xyz
  1  'x, y, z'
loop_
 _atom_site_type_symbol
 _atom_site_label
 _atom_site_symmetry_multiplicity
 _atom_site_fract_x
 _atom_site_fract_y
 _atom_site_fract_z
 _atom_site_occupancy
  C  C1  1  0.688856  0.966066  0.208081  1
  C  C2  1  -0.012055  0.765842  0.138037  1
  C  C3  1  0.389767  0.166287  0.138037  1
  C  C4  1  0.259090  0.116717  0.838134  1
  C  C5  1  0.188856  0.466066  0.650974  1
  C  C6  1  0.118622  0.815412  0.838134  1
  C  C7  1  0.188856  0.466066  0.324277  1
