# generated using pymatgen
data_C
_symmetry_space_group_name_H-M   'P 1'
_cell_length_a   3.47972101
_cell_length_b   3.47972101
_cell_length_c   4.15303362
_cell_angle_alpha   78.36576874
_cell_angle_beta   78.36576875
_cell_angle_gamma   91.21961940
_symmetry_Int_Tables_number   1
_chemical_formula_structural   C
_chemical_formula_sum   C8
_cell_volume   48.14106833
_cell_formula_units_Z   8
loop_
 _symmetry_equiv_pos_site_id
 _symmetry_equiv_pos_as_xyz
  1  'x, y, z'
loop_
 _atom_site_type_symbol
 _atom_site_label
 _atom_site_symmetry_multiplicity
 _atom_site_fract_x
 _atom_site_fract_y
 _atom_site_fract_z
 _atom_site_occupancy
  C  C1  1  0.633855  0.776161  0.320779  1
  C  C2  1  0.380799  1.033685  0.516893  1
  C  C3  1  0.688685  0.341569  0.878324  1
  C  C4  1  0.435626  0.599093  0.074439  1
  C  C5  1  0.778936  0.431819  0.519244  1
  C  C6  1  0.290551  0.943435  0.875973  1
  C  C7  1  0.123276  0.286741  0.320779  1
  C  C8  1  -0.053792  0.088513  0.074439  1
