data_image0
_cell_length_a       3.49513
_cell_length_b       3.49513
_cell_length_c       4.24612
_cell_angle_alpha    79.6759
_cell_angle_beta     79.6759
_cell_angle_gamma    93.0752

_symmetry_space_group_name_H-M    "P 1"
_symmetry_int_tables_number       1

loop_
  _symmetry_equiv_pos_as_xyz
  'x, y, z'

loop_
  _atom_site_label
  _atom_site_occupancy
  _atom_site_fract_x
  _atom_site_fract_y
  _atom_site_fract_z
  _atom_site_thermal_displace_type
  _atom_site_B_iso_or_equiv
  _atom_site_type_symbol
  C1       1.0000 0.64263  0.77446  0.31288  Biso   1.000  C
  C2       1.0000 0.41449  0.06737  0.50319  Biso   1.000  C
  C3       1.0000 0.65499  0.30788  0.89203  Biso   1.000  C
  C4       1.0000 0.42685  0.60080  0.08234  Biso   1.000  C
  C5       1.0000 0.75035  0.40323  0.51357  Biso   1.000  C
  C6       1.0000 0.31914  0.97202  0.88165  Biso   1.000  C
  C7       1.0000 0.12157  0.29551  0.31288  Biso   1.000  C
  C8       1.0000 0.94791  0.07974  0.08234  Biso   1.000  C
