# generated using pymatgen
data_C
_symmetry_space_group_name_H-M   'P 1'
_cell_length_a   3.64396250
_cell_length_b   5.29392327
_cell_length_c   5.67098892
_cell_angle_alpha   76.47952662
_cell_angle_beta   74.17164823
_cell_angle_gamma   76.36407245
_symmetry_Int_Tables_number   1
_chemical_formula_structural   C
_chemical_formula_sum   C12
_cell_volume   100.58888050
_cell_formula_units_Z   12
loop_
 _symmetry_equiv_pos_site_id
 _symmetry_equiv_pos_as_xyz
  1  'x, y, z'
loop_
 _atom_site_type_symbol
 _atom_site_label
 _atom_site_symmetry_multiplicity
 _atom_site_fract_x
 _atom_site_fract_y
 _atom_site_fract_z
 _atom_site_occupancy
  C  C1  1  0.782240  0.108059  0.440790  1
  C  C2  1  0.843976  0.283556  0.204416  1
  C  C3  1  0.824285  0.826272  0.477663  1
  C  C4  1  0.429393  0.814527  0.898848  1
  C  C5  1  0.329366  0.090665  0.845732  1
  C  C6  1  -0.022985  0.245626  0.949905  1
  C  C7  1  0.369929  0.684335  0.148383  1
  C  C8  1  0.615366  0.220975  0.665000  1
  C  C9  1  0.720185  0.556170  0.224377  1
  C  C10  1  -0.020960  0.685966  0.280254  1
  C  C11  1  0.671191  0.672683  0.712242  1
  C  C12  1  0.760541  0.390080  0.765049  1
