# generated using pymatgen
data_C
_symmetry_space_group_name_H-M   'P 1'
_cell_length_a   2.55761626
_cell_length_b   4.28006057
_cell_length_c   4.17071158
_cell_angle_alpha   119.15840177
_cell_angle_beta   89.99999999
_cell_angle_gamma   107.38450506
_symmetry_Int_Tables_number   1
_chemical_formula_structural   C
_chemical_formula_sum   C6
_cell_volume   37.46387064
_cell_formula_units_Z   6
loop_
 _symmetry_equiv_pos_site_id
 _symmetry_equiv_pos_as_xyz
  1  'x, y, z'
loop_
 _atom_site_type_symbol
 _atom_site_label
 _atom_site_symmetry_multiplicity
 _atom_site_fract_x
 _atom_site_fract_y
 _atom_site_fract_z
 _atom_site_occupancy
  C  C1  1  0.398595  0.110822  0.208102  1
  C  C2  1  0.398595  0.110822  0.551748  1
  C  C3  1  0.202308  0.718250  0.867947  1
  C  C4  1  0.594880  0.503394  0.891900  1
  C  C5  1  0.594880  0.503393  0.260519  1
  C  C6  1  0.202309  0.718251  0.499330  1
