data_image0
_cell_length_a       2.59302
_cell_length_b       4.24774
_cell_length_c       4.1685
_cell_angle_alpha    119.385
_cell_angle_beta     90
_cell_angle_gamma    107.772

_symmetry_space_group_name_H-M    "P 1"
_symmetry_int_tables_number       1

loop_
  _symmetry_equiv_pos_as_xyz
  'x, y, z'

loop_
  _atom_site_label
  _atom_site_occupancy
  _atom_site_fract_x
  _atom_site_fract_y
  _atom_site_fract_z
  _atom_site_thermal_displace_type
  _atom_site_B_iso_or_equiv
  _atom_site_type_symbol
  C1       1.0000 0.39859  0.11082  0.21716  Biso   1.000  C
  C2       1.0000 0.39859  0.11082  0.54269  Biso   1.000  C
  C3       1.0000 0.20480  0.72323  0.87046  Biso   1.000  C
  C4       1.0000 0.59239  0.49841  0.88938  Biso   1.000  C
  C5       1.0000 0.59239  0.49841  0.25805  Biso   1.000  C
  C6       1.0000 0.20480  0.72324  0.50180  Biso   1.000  C
