data_image0
_cell_length_a       3.70914
_cell_length_b       4.20788
_cell_length_c       4.21084
_cell_angle_alpha    106.207
_cell_angle_beta     101.46
_cell_angle_gamma    101.345

_symmetry_space_group_name_H-M    "P 1"
_symmetry_int_tables_number       1

loop_
  _symmetry_equiv_pos_as_xyz
  'x, y, z'

loop_
  _atom_site_label
  _atom_site_occupancy
  _atom_site_fract_x
  _atom_site_fract_y
  _atom_site_fract_z
  _atom_site_thermal_displace_type
  _atom_site_B_iso_or_equiv
  _atom_site_type_symbol
  C1       1.0000 0.14841  0.46206  0.70463  Biso   1.000  C
  C2       1.0000 0.08251  0.11646  0.71834  Biso   1.000  C
  C3       1.0000 0.08258  0.47629  0.35940  Biso   1.000  C
  C4       1.0000 0.37972  0.73633  0.97924  Biso   1.000  C
  C5       1.0000 0.69046  0.93725  0.62706  Biso   1.000  C
  C6       1.0000 0.69037  0.38443  0.17977  Biso   1.000  C
  C7       1.0000 0.46384  0.06373  0.88276  Biso   1.000  C
  C8       1.0000 0.46339  0.64004  0.30665  Biso   1.000  C
