data_image0
_cell_length_a       3.41303
_cell_length_b       3.46127
_cell_length_c       4.65777
_cell_angle_alpha    89.1384
_cell_angle_beta     68.5074
_cell_angle_gamma    87.6477

_symmetry_space_group_name_H-M    "P 1"
_symmetry_int_tables_number       1

loop_
  _symmetry_equiv_pos_as_xyz
  'x, y, z'

loop_
  _atom_site_label
  _atom_site_occupancy
  _atom_site_fract_x
  _atom_site_fract_y
  _atom_site_fract_z
  _atom_site_thermal_displace_type
  _atom_site_B_iso_or_equiv
  _atom_site_type_symbol
  C1       1.0000 0.13607  0.07346  0.41014  Biso   1.000  C
  C2       1.0000 0.83762  0.35922  0.41014  Biso   1.000  C
  C3       1.0000 0.24874  0.21634  0.88634  Biso   1.000  C
  C4       1.0000 0.81526  0.36994  0.09050  Biso   1.000  C
  C5       1.0000 0.47807  0.06274  0.09050  Biso   1.000  C
  C6       1.0000 0.73683  0.71634  0.91016  Biso   1.000  C
  C7       1.0000 0.17609  0.88413  0.69672  Biso   1.000  C
  C8       1.0000 0.51102  0.54854  0.69672  Biso   1.000  C
