# generated using pymatgen
data_C
_symmetry_space_group_name_H-M   'P 1'
_cell_length_a   3.47789136
_cell_length_b   3.43386181
_cell_length_c   4.65213023
_cell_angle_alpha   88.62481787
_cell_angle_beta   68.05010864
_cell_angle_gamma   86.31885275
_symmetry_Int_Tables_number   1
_chemical_formula_structural   C
_chemical_formula_sum   C8
_cell_volume   51.42482823
_cell_formula_units_Z   8
loop_
 _symmetry_equiv_pos_site_id
 _symmetry_equiv_pos_as_xyz
  1  'x, y, z'
loop_
 _atom_site_type_symbol
 _atom_site_label
 _atom_site_symmetry_multiplicity
 _atom_site_fract_x
 _atom_site_fract_y
 _atom_site_fract_z
 _atom_site_occupancy
  C  C1  1  0.152250  0.073332  0.409940  1
  C  C2  1  0.821634  0.359343  0.409940  1
  C  C3  1  0.247970  0.216338  0.887883  1
  C  C4  1  0.798833  0.366782  0.092487  1
  C  C5  1  0.492503  0.065896  0.092487  1
  C  C6  1  0.739485  0.716338  0.904855  1
  C  C7  1  0.176589  0.878578  0.696815  1
  C  C8  1  0.510420  0.554098  0.696815  1
