data_image0
_cell_length_a       3.15688
_cell_length_b       3.77836
_cell_length_c       5.02459
_cell_angle_alpha    90
_cell_angle_beta     85.6909
_cell_angle_gamma    90

_symmetry_space_group_name_H-M    "P 1"
_symmetry_int_tables_number       1

loop_
  _symmetry_equiv_pos_as_xyz
  'x, y, z'

loop_
  _atom_site_label
  _atom_site_occupancy
  _atom_site_fract_x
  _atom_site_fract_y
  _atom_site_fract_z
  _atom_site_thermal_displace_type
  _atom_site_B_iso_or_equiv
  _atom_site_type_symbol
  C1       1.0000 0.63053  0.89332  0.86455  Biso   1.000  C
  C2       1.0000 0.88208  0.89332  0.63012  Biso   1.000  C
  C3       1.0000 0.02912  0.57918  0.47902  Biso   1.000  C
  C4       1.0000 0.02912  0.20746  0.47902  Biso   1.000  C
  C5       1.0000 0.48349  0.20746  0.01565  Biso   1.000  C
  C6       1.0000 0.48349  0.57918  0.01565  Biso   1.000  C
  C7       1.0000 0.25630  0.07488  0.24733  Biso   1.000  C
  C8       1.0000 0.25630  0.71175  0.24733  Biso   1.000  C
