# generated using pymatgen
data_C
_symmetry_space_group_name_H-M   'P 1'
_cell_length_a   3.79178192
_cell_length_b   3.81784531
_cell_length_c   6.64667129
_cell_angle_alpha   89.86366852
_cell_angle_beta   73.42685492
_cell_angle_gamma   89.52203991
_symmetry_Int_Tables_number   1
_chemical_formula_structural   C
_chemical_formula_sum   C11
_cell_volume   92.21957568
_cell_formula_units_Z   11
loop_
 _symmetry_equiv_pos_site_id
 _symmetry_equiv_pos_as_xyz
  1  'x, y, z'
loop_
 _atom_site_type_symbol
 _atom_site_label
 _atom_site_symmetry_multiplicity
 _atom_site_fract_x
 _atom_site_fract_y
 _atom_site_fract_z
 _atom_site_occupancy
  C  C1  1  0.526860  0.253218  0.565823  1
  C  C2  1  0.306424  0.362235  0.767682  1
  C  C3  1  0.258094  0.108002  0.932762  1
  C  C4  1  0.055291  0.638228  0.767682  1
  C  C5  1  0.785222  0.000231  0.558952  1
  C  C6  1  0.036714  0.747243  0.565823  1
  C  C7  1  0.438498  0.000231  0.252401  1
  C  C8  1  0.310569  0.676562  0.370714  1
  C  C9  1  0.550471  0.000231  0.028454  1
  C  C10  1  0.938541  0.892461  0.932762  1
  C  C11  1  0.448114  0.323901  0.370714  1
