# generated using pymatgen
data_C
_symmetry_space_group_name_H-M   'P 1'
_cell_length_a   2.50188139
_cell_length_b   3.50251772
_cell_length_c   8.44099187
_cell_angle_alpha   68.77620274
_cell_angle_beta   89.99999905
_cell_angle_gamma   69.07444062
_symmetry_Int_Tables_number   1
_chemical_formula_structural   C
_chemical_formula_sum   C7
_cell_volume   63.68883648
_cell_formula_units_Z   7
loop_
 _symmetry_equiv_pos_site_id
 _symmetry_equiv_pos_as_xyz
  1  'x, y, z'
loop_
 _atom_site_type_symbol
 _atom_site_label
 _atom_site_symmetry_multiplicity
 _atom_site_fract_x
 _atom_site_fract_y
 _atom_site_fract_z
 _atom_site_occupancy
  C  C1  1  0.806535  0.069111  0.326275  1
  C  C2  1  0.351186  0.979811  0.415576  1
  C  C3  1  0.714283  0.253616  0.141771  1
  C  C4  1  0.478181  0.725819  0.060625  1
  C  C5  1  0.869238  0.943706  0.060625  1
  C  C6  1  0.443400  0.795382  0.600004  1
  C  C7  1  -0.016712  0.715607  0.679779  1
