data_image0
_cell_length_a       3.98654
_cell_length_b       4.03513
_cell_length_c       4.03511
_cell_angle_alpha    81.6691
_cell_angle_beta     99.9984
_cell_angle_gamma    80.0017

_symmetry_space_group_name_H-M    "P 1"
_symmetry_int_tables_number       1

loop_
  _symmetry_equiv_pos_as_xyz
  'x, y, z'

loop_
  _atom_site_label
  _atom_site_occupancy
  _atom_site_fract_x
  _atom_site_fract_y
  _atom_site_fract_z
  _atom_site_thermal_displace_type
  _atom_site_B_iso_or_equiv
  _atom_site_type_symbol
  C1       1.0000 0.28170  0.50375  0.45221  Biso   1.000  C
  C2       1.0000 0.49228  0.59449  0.25670  Biso   1.000  C
  C3       1.0000 0.45279  0.92306  0.02512  Biso   1.000  C
  C4       1.0000 0.07112  0.30824  0.54296  Biso   1.000  C
  C5       1.0000 0.78170  0.30719  0.25565  Biso   1.000  C
  C6       1.0000 0.78170  0.07897  0.02744  Biso   1.000  C
  C7       1.0000 0.11062  0.07666  0.87153  Biso   1.000  C
