# generated using pymatgen
data_C
_symmetry_space_group_name_H-M   'P 1'
_cell_length_a   3.71018679
_cell_length_b   4.12779831
_cell_length_c   4.12779831
_cell_angle_alpha   78.46653040
_cell_angle_beta   97.25291987
_cell_angle_gamma   82.74708012
_symmetry_Int_Tables_number   1
_chemical_formula_structural   C
_chemical_formula_sum   C7
_cell_volume   60.69382944
_cell_formula_units_Z   7
loop_
 _symmetry_equiv_pos_site_id
 _symmetry_equiv_pos_as_xyz
  1  'x, y, z'
loop_
 _atom_site_type_symbol
 _atom_site_label
 _atom_site_symmetry_multiplicity
 _atom_site_fract_x
 _atom_site_fract_y
 _atom_site_fract_z
 _atom_site_occupancy
  C  C1  1  0.281704  0.532224  0.480693  1
  C  C2  1  0.503631  0.589580  0.232404  1
  C  C3  1  0.467205  0.911853  1.020748  1
  C  C4  1  0.059775  0.283937  0.538047  1
  C  C5  1  0.781703  0.312636  0.261102  1
  C  C6  1  0.781703  0.089840  0.038307  1
  C  C7  1  0.096203  0.072280  0.860320  1
