# generated using pymatgen
data_C
_symmetry_space_group_name_H-M   'P 1'
_cell_length_a   2.57645495
_cell_length_b   4.31522715
_cell_length_c   6.79761458
_cell_angle_alpha   82.89350703
_cell_angle_beta   77.37063180
_cell_angle_gamma   86.56307100
_symmetry_Int_Tables_number   1
_chemical_formula_structural   C
_chemical_formula_sum   C12
_cell_volume   73.13844358
_cell_formula_units_Z   12
loop_
 _symmetry_equiv_pos_site_id
 _symmetry_equiv_pos_as_xyz
  1  'x, y, z'
loop_
 _atom_site_type_symbol
 _atom_site_label
 _atom_site_symmetry_multiplicity
 _atom_site_fract_x
 _atom_site_fract_y
 _atom_site_fract_z
 _atom_site_occupancy
  C  C1  1  0.509946  0.419573  0.729321  1
  C  C2  1  0.221059  0.588031  0.886705  1
  C  C3  1  0.807857  0.112925  0.727480  1
  C  C4  1  0.923147  0.894676  0.888546  1
  C  C5  1  0.059476  0.733173  0.437995  1
  C  C6  1  0.010980  0.059965  0.501065  1
  C  C7  1  0.528151  0.553321  0.508077  1
  C  C8  1  0.546775  0.234320  0.412225  1
  C  C9  1  0.671530  0.274429  0.178031  1
  C  C10  1  0.720024  0.947639  0.114960  1
  C  C11  1  0.202856  0.454282  0.107948  1
  C  C12  1  0.184228  0.773282  0.203801  1
