# generated using pymatgen
data_C
_symmetry_space_group_name_H-M   'P 1'
_cell_length_a   2.50420672
_cell_length_b   4.26132281
_cell_length_c   6.81323400
_cell_angle_alpha   97.50027337
_cell_angle_beta   90.00000078
_cell_angle_gamma   90.00000030
_symmetry_Int_Tables_number   1
_chemical_formula_structural   C
_chemical_formula_sum   C10
_cell_volume   72.08355696
_cell_formula_units_Z   10
loop_
 _symmetry_equiv_pos_site_id
 _symmetry_equiv_pos_as_xyz
  1  'x, y, z'
loop_
 _atom_site_type_symbol
 _atom_site_label
 _atom_site_symmetry_multiplicity
 _atom_site_fract_x
 _atom_site_fract_y
 _atom_site_fract_z
 _atom_site_occupancy
  C  C1  1  0.030314  0.904313  0.769708  1
  C  C2  1  0.030314  0.553759  0.741703  1
  C  C3  1  0.530316  0.060080  0.773240  1
  C  C4  1  0.530316  0.413224  0.827889  1
  C  C5  1  0.530316  0.459513  0.400560  1
  C  C6  1  0.030314  0.512071  0.490127  1
  C  C7  1  0.030314  0.730485  0.107523  1
  C  C8  1  0.030314  0.065331  0.164225  1
  C  C9  1  0.530316  0.262690  0.193827  1
  C  C10  1  0.530316  0.532458  0.059612  1
