# generated using pymatgen
data_C
_symmetry_space_group_name_H-M   'P 1'
_cell_length_a   2.54030473
_cell_length_b   2.63757202
_cell_length_c   8.26436748
_cell_angle_alpha   92.10872354
_cell_angle_beta   98.43107537
_cell_angle_gamma   89.78015371
_symmetry_Int_Tables_number   1
_chemical_formula_structural   C
_chemical_formula_sum   C8
_cell_volume   54.73763601
_cell_formula_units_Z   8
loop_
 _symmetry_equiv_pos_site_id
 _symmetry_equiv_pos_as_xyz
  1  'x, y, z'
loop_
 _atom_site_type_symbol
 _atom_site_label
 _atom_site_symmetry_multiplicity
 _atom_site_fract_x
 _atom_site_fract_y
 _atom_site_fract_z
 _atom_site_occupancy
  C  C1  1  0.561211  0.955323  0.864137  1
  C  C2  1  0.479014  0.952128  0.703622  1
  C  C3  1  0.422673  0.393517  0.593089  1
  C  C4  1  0.249088  0.452457  0.239802  1
  C  C5  1  0.161476  0.465681  0.066847  1
  C  C6  1  0.874728  0.391784  0.493596  1
  C  C7  1  0.788597  0.422245  0.321535  1
  C  C8  1  0.110899  0.953862  0.968619  1
