# generated using pymatgen
data_C
_symmetry_space_group_name_H-M   'P 1'
_cell_length_a   3.66747217
_cell_length_b   3.66747216
_cell_length_c   4.94747742
_cell_angle_alpha   90.00000001
_cell_angle_beta   90.00000001
_cell_angle_gamma   81.51266031
_symmetry_Int_Tables_number   1
_chemical_formula_structural   C
_chemical_formula_sum   C8
_cell_volume   65.81654218
_cell_formula_units_Z   8
loop_
 _symmetry_equiv_pos_site_id
 _symmetry_equiv_pos_as_xyz
  1  'x, y, z'
loop_
 _atom_site_type_symbol
 _atom_site_label
 _atom_site_symmetry_multiplicity
 _atom_site_fract_x
 _atom_site_fract_y
 _atom_site_fract_z
 _atom_site_occupancy
  C  C1  1  0.029501  0.522870  0.154469  1
  C  C2  1  0.029501  0.522870  0.440333  1
  C  C3  1  0.382994  0.169378  0.797400  1
  C  C4  1  0.676010  0.876361  0.797400  1
  C  C5  1  0.123221  0.181473  0.010433  1
  C  C6  1  0.370898  0.429150  0.584369  1
  C  C7  1  0.935782  0.864266  0.010433  1
  C  C8  1  0.688106  0.616590  0.584369  1
