# generated using pymatgen
data_C
_symmetry_space_group_name_H-M   'P 1'
_cell_length_a   4.07654700
_cell_length_b   4.39675531
_cell_length_c   6.63609803
_cell_angle_alpha   95.11197443
_cell_angle_beta   97.96123341
_cell_angle_gamma   102.16369595
_symmetry_Int_Tables_number   1
_chemical_formula_structural   C
_chemical_formula_sum   C13
_cell_volume   114.28896993
_cell_formula_units_Z   13
loop_
 _symmetry_equiv_pos_site_id
 _symmetry_equiv_pos_as_xyz
  1  'x, y, z'
loop_
 _atom_site_type_symbol
 _atom_site_label
 _atom_site_symmetry_multiplicity
 _atom_site_fract_x
 _atom_site_fract_y
 _atom_site_fract_z
 _atom_site_occupancy
  C  C1  1  0.678428  0.156291  0.396425  1
  C  C2  1  0.627069  0.244449  0.191893  1
  C  C3  1  0.907160  0.117151  0.854784  1
  C  C4  1  0.090685  0.959020  0.985339  1
  C  C5  1  0.561528  0.992627  0.830833  1
  C  C6  1  0.815606  0.532870  0.155132  1
  C  C7  1  0.969496  0.643393  0.993684  1
  C  C8  1  0.022231  0.436267  0.831492  1
  C  C9  1  0.353309  0.836855  0.641360  1
  C  C10  1  0.150685  0.517916  0.646039  1
  C  C11  1  0.435719  0.055861  1.014696  1
  C  C12  1  0.347362  0.057890  0.486314  1
  C  C13  1  0.060722  0.238195  0.490001  1
