# generated using pymatgen
data_C
_symmetry_space_group_name_H-M   'P 1'
_cell_length_a   3.07952877
_cell_length_b   3.94176197
_cell_length_c   5.29711679
_cell_angle_alpha   102.03537432
_cell_angle_beta   96.77475173
_cell_angle_gamma   121.43320602
_symmetry_Int_Tables_number   1
_chemical_formula_structural   C
_chemical_formula_sum   C6
_cell_volume   51.64024264
_cell_formula_units_Z   6
loop_
 _symmetry_equiv_pos_site_id
 _symmetry_equiv_pos_as_xyz
  1  'x, y, z'
loop_
 _atom_site_type_symbol
 _atom_site_label
 _atom_site_symmetry_multiplicity
 _atom_site_fract_x
 _atom_site_fract_y
 _atom_site_fract_z
 _atom_site_occupancy
  C  C1  1  0.287550  0.320762  0.208356  1
  C  C2  1  0.133604  0.178260  0.924734  1
  C  C3  1  -0.027914  0.528298  0.624252  1
  C  C4  1  0.289466  0.961295  0.764510  1
  C  C5  1  0.805802  0.235093  0.764518  1
  C  C6  1  0.817622  0.385779  0.338361  1
