# generated using pymatgen
data_C
_symmetry_space_group_name_H-M   'P 1'
_cell_length_a   2.47679287
_cell_length_b   4.35919979
_cell_length_c   4.37772496
_cell_angle_alpha   80.14883906
_cell_angle_beta   89.98457263
_cell_angle_gamma   89.98411082
_symmetry_Int_Tables_number   1
_chemical_formula_structural   C
_chemical_formula_sum   C5
_cell_volume   46.56866468
_cell_formula_units_Z   5
loop_
 _symmetry_equiv_pos_site_id
 _symmetry_equiv_pos_as_xyz
  1  'x, y, z'
loop_
 _atom_site_type_symbol
 _atom_site_label
 _atom_site_symmetry_multiplicity
 _atom_site_fract_x
 _atom_site_fract_y
 _atom_site_fract_z
 _atom_site_occupancy
  C  C1  1  0.716068  0.023779  0.346934  1
  C  C2  1  0.716068  0.775433  0.595264  1
  C  C3  1  0.716067  0.527089  0.843592  1
  C  C4  1  0.216067  0.401708  0.968972  1
  C  C5  1  0.216067  0.149161  0.221555  1
