# generated using pymatgen
data_C
_symmetry_space_group_name_H-M   'P 1'
_cell_length_a   3.60977368
_cell_length_b   3.63463932
_cell_length_c   5.45169077
_cell_angle_alpha   70.52778274
_cell_angle_beta   85.01003896
_cell_angle_gamma   74.87470339
_symmetry_Int_Tables_number   1
_chemical_formula_structural   C
_chemical_formula_sum   C8
_cell_volume   65.10011580
_cell_formula_units_Z   8
loop_
 _symmetry_equiv_pos_site_id
 _symmetry_equiv_pos_as_xyz
  1  'x, y, z'
loop_
 _atom_site_type_symbol
 _atom_site_label
 _atom_site_symmetry_multiplicity
 _atom_site_fract_x
 _atom_site_fract_y
 _atom_site_fract_z
 _atom_site_occupancy
  C  C1  1  0.904197  0.245803  0.240677  1
  C  C2  1  0.806326  0.873301  0.386206  1
  C  C3  1  0.806326  0.736551  0.659705  1
  C  C4  1  0.165700  0.225470  0.030630  1
  C  C5  1  0.446952  0.876707  0.030630  1
  C  C6  1  0.708455  0.646327  0.240677  1
  C  C7  1  0.155081  0.571923  0.805590  1
  C  C8  1  0.457572  0.755295  0.805590  1
