data_image0
_cell_length_a       3.72299
_cell_length_b       3.60158
_cell_length_c       5.60906
_cell_angle_alpha    71.2736
_cell_angle_beta     84.7155
_cell_angle_gamma    73.329

_symmetry_space_group_name_H-M    "P 1"
_symmetry_int_tables_number       1

loop_
  _symmetry_equiv_pos_as_xyz
  'x, y, z'

loop_
  _atom_site_label
  _atom_site_occupancy
  _atom_site_fract_x
  _atom_site_fract_y
  _atom_site_fract_z
  _atom_site_thermal_displace_type
  _atom_site_B_iso_or_equiv
  _atom_site_type_symbol
  C1       1.0000 0.90409  0.23521  0.23729  Biso   1.000  C
  C2       1.0000 0.80633  0.87333  0.38615  Biso   1.000  C
  C3       1.0000 0.80633  0.73562  0.66156  Biso   1.000  C
  C4       1.0000 0.15142  0.23688  0.03251  Biso   1.000  C
  C5       1.0000 0.46123  0.86342  0.03251  Biso   1.000  C
  C6       1.0000 0.70856  0.66031  0.23729  Biso   1.000  C
  C7       1.0000 0.13905  0.59584  0.80621  Biso   1.000  C
  C8       1.0000 0.47360  0.73076  0.80621  Biso   1.000  C
