# generated using pymatgen
data_C
_symmetry_space_group_name_H-M   'P 1'
_cell_length_a   2.49795270
_cell_length_b   3.36111623
_cell_length_c   8.09537394
_cell_angle_alpha   110.96876469
_cell_angle_beta   90.00000000
_cell_angle_gamma   111.81406216
_symmetry_Int_Tables_number   1
_chemical_formula_structural   C
_chemical_formula_sum   C8
_cell_volume   58.22498345
_cell_formula_units_Z   8
loop_
 _symmetry_equiv_pos_site_id
 _symmetry_equiv_pos_as_xyz
  1  'x, y, z'
loop_
 _atom_site_type_symbol
 _atom_site_label
 _atom_site_symmetry_multiplicity
 _atom_site_fract_x
 _atom_site_fract_y
 _atom_site_fract_z
 _atom_site_occupancy
  C  C1  1  0.458644  0.178545  0.378596  1
  C  C2  1  0.553333  0.367922  0.567974  1
  C  C3  1  0.911745  0.084747  0.284799  1
  C  C4  1  0.817220  -0.104303  0.095748  1
  C  C5  1  0.103890  0.469037  0.669089  1
  C  C6  1  0.263457  0.788170  -0.011777  1
  C  C7  1  0.374758  0.010772  0.840123  1
  C  C8  1  0.004055  0.269367  0.840123  1
