data_image0
_cell_length_a       2.38387
_cell_length_b       2.81075
_cell_length_c       7.5953
_cell_angle_alpha    107.669
_cell_angle_beta     90
_cell_angle_gamma    115.091

_symmetry_space_group_name_H-M    "P 1"
_symmetry_int_tables_number       1

loop_
  _symmetry_equiv_pos_as_xyz
  'x, y, z'

loop_
  _atom_site_label
  _atom_site_occupancy
  _atom_site_fract_x
  _atom_site_fract_y
  _atom_site_fract_z
  _atom_site_thermal_displace_type
  _atom_site_B_iso_or_equiv
  _atom_site_type_symbol
  C1       1.0000 0.46008  0.18142  0.38147  Biso   1.000  C
  C2       1.0000 0.55162  0.36449  0.56454  Biso   1.000  C
  C3       1.0000 0.91169  0.08464  0.28470  Biso   1.000  C
  C4       1.0000 0.82016  0.90157  0.10163  Biso   1.000  C
  C5       1.0000 0.10331  0.46787  0.66793  Biso   1.000  C
  C6       1.0000 0.26847  0.79819  0.99824  Biso   1.000  C
  C7       1.0000 0.36531  0.99188  0.83308  Biso   1.000  C
  C8       1.0000 0.00646  0.27418  0.83308  Biso   1.000  C
