# generated using pymatgen
data_C
_symmetry_space_group_name_H-M   'P 1'
_cell_length_a   4.31560917
_cell_length_b   4.89790328
_cell_length_c   5.67850887
_cell_angle_alpha   82.17297073
_cell_angle_beta   77.79002580
_cell_angle_gamma   98.20858655
_symmetry_Int_Tables_number   1
_chemical_formula_structural   C
_chemical_formula_sum   C12
_cell_volume   114.38178100
_cell_formula_units_Z   12
loop_
 _symmetry_equiv_pos_site_id
 _symmetry_equiv_pos_as_xyz
  1  'x, y, z'
loop_
 _atom_site_type_symbol
 _atom_site_label
 _atom_site_symmetry_multiplicity
 _atom_site_fract_x
 _atom_site_fract_y
 _atom_site_fract_z
 _atom_site_occupancy
  C  C1  1  0.526006  0.296570  0.293285  1
  C  C2  1  0.272135  0.069678  0.372544  1
  C  C3  1  -0.073471  0.530231  0.575419  1
  C  C4  1  -0.087003  0.743324  0.725699  1
  C  C5  1  0.487026  0.883267  0.009893  1
  C  C6  1  0.246032  0.857242  0.224277  1
  C  C7  1  0.561491  0.132657  0.839454  1
  C  C8  1  -0.011954  0.628541  0.316631  1
  C  C9  1  0.761455  0.533899  0.183398  1
  C  C10  1  -0.146339  0.240832  0.667122  1
  C  C11  1  0.034290  0.030553  0.595131  1
  C  C12  1  0.721415  0.703815  0.971767  1
