data_image0
_cell_length_a       2.60699
_cell_length_b       3.25899
_cell_length_c       4.94186
_cell_angle_alpha    106.256
_cell_angle_beta     101.612
_cell_angle_gamma    100.898

_symmetry_space_group_name_H-M    "P 1"
_symmetry_int_tables_number       1

loop_
  _symmetry_equiv_pos_as_xyz
  'x, y, z'

loop_
  _atom_site_label
  _atom_site_occupancy
  _atom_site_fract_x
  _atom_site_fract_y
  _atom_site_fract_z
  _atom_site_thermal_displace_type
  _atom_site_B_iso_or_equiv
  _atom_site_type_symbol
  C1       1.0000 0.11321  0.75983  0.27401  Biso   1.000  C
  C2       1.0000 0.98984  0.50196  0.47660  Biso   1.000  C
  C3       1.0000 0.96757  0.61437  0.98302  Biso   1.000  C
  C4       1.0000 0.64165  0.15391  0.78043  Biso   1.000  C
  C5       1.0000 0.09094  0.87224  0.78042  Biso   1.000  C
  C6       1.0000 0.43914  0.22029  0.47660  Biso   1.000  C
