# generated using pymatgen
data_C
_symmetry_space_group_name_H-M   'P 1'
_cell_length_a   2.53099811
_cell_length_b   4.89578672
_cell_length_c   4.98585469
_cell_angle_alpha   90.00083071
_cell_angle_beta   89.99987521
_cell_angle_gamma   90.00680262
_symmetry_Int_Tables_number   1
_chemical_formula_structural   C
_chemical_formula_sum   C10
_cell_volume   61.78085668
_cell_formula_units_Z   10
loop_
 _symmetry_equiv_pos_site_id
 _symmetry_equiv_pos_as_xyz
  1  'x, y, z'
loop_
 _atom_site_type_symbol
 _atom_site_label
 _atom_site_symmetry_multiplicity
 _atom_site_fract_x
 _atom_site_fract_y
 _atom_site_fract_z
 _atom_site_occupancy
  C  C1  1  0.945513  0.412055  0.732209  1
  C  C2  1  0.945431  0.585247  0.484603  1
  C  C3  1  0.945519  0.412066  0.237002  1
  C  C4  1  0.945647  0.118770  0.673136  1
  C  C5  1  0.945653  0.118779  0.296054  1
  C  C6  1  0.945543  0.583381  0.984604  1
  C  C7  1  0.445613  0.958922  0.241531  1
  C  C8  1  0.445525  0.755516  0.484599  1
  C  C9  1  0.445611  0.958913  0.727655  1
  C  C10  1  0.445589  0.784943  0.984597  1
