# generated using pymatgen
data_C
_symmetry_space_group_name_H-M   'P 1'
_cell_length_a   3.56969056
_cell_length_b   3.56969056
_cell_length_c   5.69082078
_cell_angle_alpha   102.79868492
_cell_angle_beta   102.79868492
_cell_angle_gamma   107.07861948
_symmetry_Int_Tables_number   1
_chemical_formula_structural   C
_chemical_formula_sum   C8
_cell_volume   64.32238415
_cell_formula_units_Z   8
loop_
 _symmetry_equiv_pos_site_id
 _symmetry_equiv_pos_as_xyz
  1  'x, y, z'
loop_
 _atom_site_type_symbol
 _atom_site_label
 _atom_site_symmetry_multiplicity
 _atom_site_fract_x
 _atom_site_fract_y
 _atom_site_fract_z
 _atom_site_occupancy
  C  C1  1  0.089913  0.160849  -0.120643  1
  C  C2  1  0.222901  0.293836  0.145332  1
  C  C3  1  0.000094  0.467121  0.289207  1
  C  C4  1  0.241352  0.812288  0.512344  1
  C  C5  1  0.916628  0.383656  0.735483  1
  C  C6  1  0.119324  0.794167  0.735483  1
  C  C7  1  0.571464  0.142398  0.512344  1
  C  C8  1  0.589582  0.264425  0.289207  1
