# generated using pymatgen
data_C
_symmetry_space_group_name_H-M   'P 1'
_cell_length_a   2.50072710
_cell_length_b   4.15787364
_cell_length_c   7.29565478
_cell_angle_alpha   106.55618752
_cell_angle_beta   99.86833777
_cell_angle_gamma   90.00000000
_symmetry_Int_Tables_number   1
_chemical_formula_structural   C
_chemical_formula_sum   C8
_cell_volume   71.54135787
_cell_formula_units_Z   8
loop_
 _symmetry_equiv_pos_site_id
 _symmetry_equiv_pos_as_xyz
  1  'x, y, z'
loop_
 _atom_site_type_symbol
 _atom_site_label
 _atom_site_symmetry_multiplicity
 _atom_site_fract_x
 _atom_site_fract_y
 _atom_site_fract_z
 _atom_site_occupancy
  C  C1  1  0.496070  0.464015  0.429353  1
  C  C2  1  0.046272  0.525007  0.529757  1
  C  C3  1  0.392586  0.360531  0.222384  1
  C  C4  1  0.842382  0.321117  0.121979  1
  C  C5  1  0.204860  0.406656  0.846933  1
  C  C6  1  0.732928  0.258051  0.903069  1
  C  C7  1  0.155727  0.680851  0.748667  1
  C  C8  1  0.683795  0.885591  0.804803  1
