# generated using pymatgen
data_C
_symmetry_space_group_name_H-M   'P 1'
_cell_length_a   3.87109091
_cell_length_b   4.15390266
_cell_length_c   5.25102748
_cell_angle_alpha   113.29918062
_cell_angle_beta   111.62949786
_cell_angle_gamma   90.00000000
_symmetry_Int_Tables_number   1
_chemical_formula_structural   C
_chemical_formula_sum   C8
_cell_volume   71.03203039
_cell_formula_units_Z   8
loop_
 _symmetry_equiv_pos_site_id
 _symmetry_equiv_pos_as_xyz
  1  'x, y, z'
loop_
 _atom_site_type_symbol
 _atom_site_label
 _atom_site_symmetry_multiplicity
 _atom_site_fract_x
 _atom_site_fract_y
 _atom_site_fract_z
 _atom_site_occupancy
  C  C1  1  0.049864  0.999874  0.805002  1
  C  C2  1  0.861657  0.097686  0.000626  1
  C  C3  1  -0.025182  0.676000  0.545880  1
  C  C4  1  0.079771  0.348674  0.545880  1
  C  C5  1  0.263845  0.283922  0.805002  1
  C  C6  1  0.647676  0.381735  0.000626  1
  C  C7  1  -0.063295  0.032935  0.259749  1
  C  C8  1  0.831752  0.705608  0.259749  1
