# generated using pymatgen
data_C
_symmetry_space_group_name_H-M   'P 1'
_cell_length_a   4.29040471
_cell_length_b   4.38860181
_cell_length_c   4.38860181
_cell_angle_alpha   61.87299065
_cell_angle_beta   89.93060185
_cell_angle_gamma   90.06939815
_symmetry_Int_Tables_number   1
_chemical_formula_structural   C
_chemical_formula_sum   C10
_cell_volume   72.87374412
_cell_formula_units_Z   10
loop_
 _symmetry_equiv_pos_site_id
 _symmetry_equiv_pos_as_xyz
  1  'x, y, z'
loop_
 _atom_site_type_symbol
 _atom_site_label
 _atom_site_symmetry_multiplicity
 _atom_site_fract_x
 _atom_site_fract_y
 _atom_site_fract_z
 _atom_site_occupancy
  C  C1  1  0.119267  0.019783  0.194099  1
  C  C2  1  0.961406  0.335131  0.045114  1
  C  C3  1  0.119267  0.602966  0.777279  1
  C  C4  1  0.961406  0.751950  0.461933  1
  C  C5  1  0.463379  0.008518  0.130103  1
  C  C6  1  0.617294  0.346396  0.109110  1
  C  C7  1  0.564957  0.338870  0.458195  1
  C  C8  1  0.515714  0.016042  0.781021  1
  C  C9  1  0.463379  0.666960  0.788544  1
  C  C10  1  0.617294  0.687954  0.450668  1
