data_image0
_cell_length_a       4.28921
_cell_length_b       4.36634
_cell_length_c       4.36634
_cell_angle_alpha    61.7666
_cell_angle_beta     90.1009
_cell_angle_gamma    89.8991

_symmetry_space_group_name_H-M    "P 1"
_symmetry_int_tables_number       1

loop_
  _symmetry_equiv_pos_as_xyz
  'x, y, z'

loop_
  _atom_site_label
  _atom_site_occupancy
  _atom_site_fract_x
  _atom_site_fract_y
  _atom_site_fract_z
  _atom_site_thermal_displace_type
  _atom_site_B_iso_or_equiv
  _atom_site_type_symbol
  C1       1.0000 0.11950  0.02699  0.19237  Biso   1.000  C
  C2       1.0000 0.96118  0.32792  0.04684  Biso   1.000  C
  C3       1.0000 0.11950  0.60469  0.77007  Biso   1.000  C
  C4       1.0000 0.96118  0.75022  0.46914  Biso   1.000  C
  C5       1.0000 0.46599  0.01215  0.12673  Biso   1.000  C
  C6       1.0000 0.61469  0.34276  0.11249  Biso   1.000  C
  C7       1.0000 0.56560  0.32995  0.46711  Biso   1.000  C
  C8       1.0000 0.51507  0.02496  0.77210  Biso   1.000  C
  C9       1.0000 0.46599  0.67034  0.78491  Biso   1.000  C
  C10      1.0000 0.61469  0.68458  0.45430  Biso   1.000  C
