data_image0
_cell_length_a       2.65724
_cell_length_b       4.30369
_cell_length_c       4.99312
_cell_angle_alpha    85.2854
_cell_angle_beta     74.5663
_cell_angle_gamma    72.0199

_symmetry_space_group_name_H-M    "P 1"
_symmetry_int_tables_number       1

loop_
  _symmetry_equiv_pos_as_xyz
  'x, y, z'

loop_
  _atom_site_label
  _atom_site_occupancy
  _atom_site_fract_x
  _atom_site_fract_y
  _atom_site_fract_z
  _atom_site_thermal_displace_type
  _atom_site_B_iso_or_equiv
  _atom_site_type_symbol
  C1       1.0000 0.92821  0.93434  0.47510  Biso   1.000  C
  C2       1.0000 0.16080  0.08903  0.22910  Biso   1.000  C
  C3       1.0000 0.54091  0.08902  0.72111  Biso   1.000  C
  C4       1.0000 0.11745  0.42792  0.22909  Biso   1.000  C
  C5       1.0000 0.10399  0.58260  0.47511  Biso   1.000  C
  C6       1.0000 0.24534  0.42793  0.72110  Biso   1.000  C
  C7       1.0000 0.07734  0.63607  0.97510  Biso   1.000  C
  C8       1.0000 0.45493  0.88088  0.97510  Biso   1.000  C
