# generated using pymatgen
data_C
_symmetry_space_group_name_H-M   'P 1'
_cell_length_a   2.97322031
_cell_length_b   4.30910420
_cell_length_c   4.85696821
_cell_angle_alpha   83.86844044
_cell_angle_beta   72.07077979
_cell_angle_gamma   69.69794589
_symmetry_Int_Tables_number   1
_chemical_formula_structural   C
_chemical_formula_sum   C8
_cell_volume   55.52713670
_cell_formula_units_Z   8
loop_
 _symmetry_equiv_pos_site_id
 _symmetry_equiv_pos_as_xyz
  1  'x, y, z'
loop_
 _atom_site_type_symbol
 _atom_site_label
 _atom_site_symmetry_multiplicity
 _atom_site_fract_x
 _atom_site_fract_y
 _atom_site_fract_z
 _atom_site_occupancy
  C  C1  1  0.929583  0.931559  0.475099  1
  C  C2  1  0.154487  0.092235  0.241308  1
  C  C3  1  0.543998  0.092235  0.708894  1
  C  C4  1  0.111550  0.424716  0.241310  1
  C  C5  1  0.102664  0.585388  0.475099  1
  C  C6  1  0.254456  0.424716  0.708894  1
  C  C7  1  0.102592  0.585536  0.975101  1
  C  C8  1  0.429652  0.931413  0.975101  1
