# generated using pymatgen
data_C
_symmetry_space_group_name_H-M   'P 1'
_cell_length_a   4.34058251
_cell_length_b   4.74422509
_cell_length_c   4.86780106
_cell_angle_alpha   103.69502297
_cell_angle_beta   89.82811202
_cell_angle_gamma   91.25518885
_symmetry_Int_Tables_number   1
_chemical_formula_structural   C
_chemical_formula_sum   C12
_cell_volume   97.36766554
_cell_formula_units_Z   12
loop_
 _symmetry_equiv_pos_site_id
 _symmetry_equiv_pos_as_xyz
  1  'x, y, z'
loop_
 _atom_site_type_symbol
 _atom_site_label
 _atom_site_symmetry_multiplicity
 _atom_site_fract_x
 _atom_site_fract_y
 _atom_site_fract_z
 _atom_site_occupancy
  C  C1  1  0.216159  0.026473  0.008463  1
  C  C2  1  0.257090  0.243878  0.859731  1
  C  C3  1  0.216516  0.020585  0.312321  1
  C  C4  1  0.256733  0.249766  0.555872  1
  C  C5  1  0.156170  0.723308  0.835360  1
  C  C6  1  0.317078  0.547044  0.032833  1
  C  C7  1  0.815569  0.660155  0.814916  1
  C  C8  1  0.657678  0.610195  0.053278  1
  C  C9  1  0.654940  0.634749  0.559063  1
  C  C10  1  0.818310  0.635601  0.309130  1
  C  C11  1  0.162296  0.687555  0.316778  1
  C  C12  1  0.310952  0.582797  0.551415  1
