data_image0
_cell_length_a       4.32162
_cell_length_b       4.74089
_cell_length_c       4.83023
_cell_angle_alpha    104.023
_cell_angle_beta     89.99
_cell_angle_gamma    91.7036

_symmetry_space_group_name_H-M    "P 1"
_symmetry_int_tables_number       1

loop_
  _symmetry_equiv_pos_as_xyz
  'x, y, z'

loop_
  _atom_site_label
  _atom_site_occupancy
  _atom_site_fract_x
  _atom_site_fract_y
  _atom_site_fract_z
  _atom_site_thermal_displace_type
  _atom_site_B_iso_or_equiv
  _atom_site_type_symbol
  C1       1.0000 0.22035  0.02607  0.00450  Biso   1.000  C
  C2       1.0000 0.25289  0.24428  0.86370  Biso   1.000  C
  C3       1.0000 0.22197  0.02212  0.31162  Biso   1.000  C
  C4       1.0000 0.25128  0.24823  0.55658  Biso   1.000  C
  C5       1.0000 0.16351  0.71873  0.83810  Biso   1.000  C
  C6       1.0000 0.30974  0.55162  0.03009  Biso   1.000  C
  C7       1.0000 0.81735  0.65215  0.81465  Biso   1.000  C
  C8       1.0000 0.65590  0.61820  0.05354  Biso   1.000  C
  C9       1.0000 0.65871  0.62955  0.55862  Biso   1.000  C
  C10      1.0000 0.81454  0.64080  0.30958  Biso   1.000  C
  C11      1.0000 0.16263  0.69006  0.31482  Biso   1.000  C
  C12      1.0000 0.31062  0.58029  0.55337  Biso   1.000  C
