# generated using pymatgen
data_C
_symmetry_space_group_name_H-M   'P 1'
_cell_length_a   2.54453000
_cell_length_b   3.84314017
_cell_length_c   4.26611573
_cell_angle_alpha   63.22897141
_cell_angle_beta   90.00000000
_cell_angle_gamma   90.00000000
_symmetry_Int_Tables_number   1
_chemical_formula_structural   C
_chemical_formula_sum   C6
_cell_volume   37.24665473
_cell_formula_units_Z   6
loop_
 _symmetry_equiv_pos_site_id
 _symmetry_equiv_pos_as_xyz
  1  'x, y, z'
loop_
 _atom_site_type_symbol
 _atom_site_label
 _atom_site_symmetry_multiplicity
 _atom_site_fract_x
 _atom_site_fract_y
 _atom_site_fract_z
 _atom_site_occupancy
  C  C1  1  0.149874  0.271270  0.554969  1
  C  C2  1  0.149874  0.667462  0.554969  1
  C  C3  1  0.649872  0.215250  0.063201  1
  C  C4  1  0.149874  0.105792  0.282117  1
  C  C5  1  0.649872  0.049771  0.790350  1
  C  C6  1  0.649872  0.653580  0.790350  1
