# generated using pymatgen
data_C
_symmetry_space_group_name_H-M   'P 1'
_cell_length_a   2.49740906
_cell_length_b   5.13173897
_cell_length_c   7.58995050
_cell_angle_alpha   93.62007418
_cell_angle_beta   90.00000079
_cell_angle_gamma   90.00000012
_symmetry_Int_Tables_number   1
_chemical_formula_structural   C
_chemical_formula_sum   C12
_cell_volume   97.07910336
_cell_formula_units_Z   12
loop_
 _symmetry_equiv_pos_site_id
 _symmetry_equiv_pos_as_xyz
  1  'x, y, z'
loop_
 _atom_site_type_symbol
 _atom_site_label
 _atom_site_symmetry_multiplicity
 _atom_site_fract_x
 _atom_site_fract_y
 _atom_site_fract_z
 _atom_site_occupancy
  C  C1  1  0.442835  0.020050  0.058419  1
  C  C2  1  0.942833  0.139047  0.021342  1
  C  C3  1  0.442835  0.066632  0.676141  1
  C  C4  1  0.942833  0.950629  0.636433  1
  C  C5  1  0.442835  0.731112  0.086343  1
  C  C6  1  0.942833  0.611935  0.006904  1
  C  C7  1  0.942833  0.360467  0.897067  1
  C  C8  1  0.442835  0.682104  0.280783  1
  C  C9  1  0.942833  0.651408  0.366750  1
  C  C10  1  0.442835  0.522296  0.633463  1
  C  C11  1  0.942833  0.630920  0.562558  1
  C  C12  1  0.442835  0.333082  0.777407  1
