# generated using pymatgen
data_C
_symmetry_space_group_name_H-M   'P 1'
_cell_length_a   2.51428955
_cell_length_b   4.62997358
_cell_length_c   5.84174475
_cell_angle_alpha   108.06373921
_cell_angle_beta   90.00000174
_cell_angle_gamma   89.99999967
_symmetry_Int_Tables_number   1
_chemical_formula_structural   C
_chemical_formula_sum   C9
_cell_volume   64.65251570
_cell_formula_units_Z   9
loop_
 _symmetry_equiv_pos_site_id
 _symmetry_equiv_pos_as_xyz
  1  'x, y, z'
loop_
 _atom_site_type_symbol
 _atom_site_label
 _atom_site_symmetry_multiplicity
 _atom_site_fract_x
 _atom_site_fract_y
 _atom_site_fract_z
 _atom_site_occupancy
  C  C1  1  0.854862  0.621308  0.950591  1
  C  C2  1  0.354861  0.787466  0.964567  1
  C  C3  1  0.854862  0.258931  0.901297  1
  C  C4  1  0.854862  0.075294  0.600160  1
  C  C5  1  0.854862  0.763095  0.488633  1
  C  C6  1  0.354862  0.618790  0.399050  1
  C  C7  1  0.354862  0.275049  0.298537  1
  C  C8  1  0.854862  0.206410  0.413674  1
  C  C9  1  0.354862  0.147883  0.018294  1
