data_image0
_cell_length_a       3.73858
_cell_length_b       3.62522
_cell_length_c       4.53493
_cell_angle_alpha    71.3933
_cell_angle_beta     98.1489
_cell_angle_gamma    71.9659

_symmetry_space_group_name_H-M    "P 1"
_symmetry_int_tables_number       1

loop_
  _symmetry_equiv_pos_as_xyz
  'x, y, z'

loop_
  _atom_site_label
  _atom_site_occupancy
  _atom_site_fract_x
  _atom_site_fract_y
  _atom_site_fract_z
  _atom_site_thermal_displace_type
  _atom_site_B_iso_or_equiv
  _atom_site_type_symbol
  C1       1.0000 0.19885  0.08839  0.43878  Biso   1.000  C
  C2       1.0000 0.09290  0.09407  0.72075  Biso   1.000  C
  C3       1.0000 0.55294  0.73898  0.48997  Biso   1.000  C
  C4       1.0000 0.84466  0.43920  0.78034  Biso   1.000  C
  C5       1.0000 0.23410  0.71904  0.01312  Biso   1.000  C
  C6       1.0000 0.58858  0.66656  0.20271  Biso   1.000  C
  C7       1.0000 0.96364  0.48601  0.11385  Biso   1.000  C
