# generated using pymatgen
data_C
_symmetry_space_group_name_H-M   'P 1'
_cell_length_a   3.41272290
_cell_length_b   4.18202507
_cell_length_c   4.46668149
_cell_angle_alpha   64.31617512
_cell_angle_beta   89.79717757
_cell_angle_gamma   70.60718175
_symmetry_Int_Tables_number   1
_chemical_formula_structural   C
_chemical_formula_sum   C7
_cell_volume   53.44705794
_cell_formula_units_Z   7
loop_
 _symmetry_equiv_pos_site_id
 _symmetry_equiv_pos_as_xyz
  1  'x, y, z'
loop_
 _atom_site_type_symbol
 _atom_site_label
 _atom_site_symmetry_multiplicity
 _atom_site_fract_x
 _atom_site_fract_y
 _atom_site_fract_z
 _atom_site_occupancy
  C  C1  1  0.223497  0.084946  0.441509  1
  C  C2  1  0.057112  0.102829  0.729030  1
  C  C3  1  0.566731  0.747322  0.485974  1
  C  C4  1  0.861509  0.433629  0.774391  1
  C  C5  1  0.200995  0.758829  0.020899  1
  C  C6  1  0.564907  0.675435  0.206328  1
  C  C7  1  0.000927  0.429244  0.101378  1
