# generated using pymatgen
data_C
_symmetry_space_group_name_H-M   'P 1'
_cell_length_a   3.45627493
_cell_length_b   4.29112674
_cell_length_c   6.83229102
_cell_angle_alpha   82.65500181
_cell_angle_beta   88.34511975
_cell_angle_gamma   85.71705349
_symmetry_Int_Tables_number   1
_chemical_formula_structural   C
_chemical_formula_sum   C12
_cell_volume   100.20055490
_cell_formula_units_Z   12
loop_
 _symmetry_equiv_pos_site_id
 _symmetry_equiv_pos_as_xyz
  1  'x, y, z'
loop_
 _atom_site_type_symbol
 _atom_site_label
 _atom_site_symmetry_multiplicity
 _atom_site_fract_x
 _atom_site_fract_y
 _atom_site_fract_z
 _atom_site_occupancy
  C  C1  1  -0.008587  0.873029  0.139260  1
  C  C2  1  0.313910  0.920409  0.253443  1
  C  C3  1  0.667662  0.735561  0.240289  1
  C  C4  1  0.272245  0.027588  0.444298  1
  C  C5  1  0.370615  0.328278  0.471137  1
  C  C6  1  0.128291  0.802226  0.596782  1
  C  C7  1  0.038686  0.520721  0.520861  1
  C  C8  1  0.707428  0.494183  0.407752  1
  C  C9  1  0.721088  0.253821  0.878661  1
  C  C10  1  0.466043  0.512317  0.873883  1
  C  C11  1  0.974605  0.975176  0.931797  1
  C  C12  1  0.195919  0.776421  0.803654  1
