# generated using pymatgen
data_C
_symmetry_space_group_name_H-M   'P 1'
_cell_length_a   3.50105309
_cell_length_b   4.47613856
_cell_length_c   4.47613856
_cell_angle_alpha   86.80640269
_cell_angle_beta   84.89026724
_cell_angle_gamma   95.10973275
_symmetry_Int_Tables_number   1
_chemical_formula_structural   C
_chemical_formula_sum   C8
_cell_volume   69.44669194
_cell_formula_units_Z   8
loop_
 _symmetry_equiv_pos_site_id
 _symmetry_equiv_pos_as_xyz
  1  'x, y, z'
loop_
 _atom_site_type_symbol
 _atom_site_label
 _atom_site_symmetry_multiplicity
 _atom_site_fract_x
 _atom_site_fract_y
 _atom_site_fract_z
 _atom_site_occupancy
  C  C1  1  0.631101  0.865197  0.520646  1
  C  C2  1  0.319468  0.793288  0.343815  1
  C  C3  1  0.576368  0.898639  0.830576  1
  C  C4  1  0.361775  0.362721  0.023122  1
  C  C5  1  0.000757  0.197278  0.118826  1
  C  C6  1  0.673408  0.185891  0.951212  1
  C  C7  1  0.992118  -0.039099  0.355204  1
  C  C8  1  0.416506  0.672653  0.056563  1
