data_image0
_cell_length_a       3.72319
_cell_length_b       4.42069
_cell_length_c       4.42069
_cell_angle_alpha    81.1092
_cell_angle_beta     86.9615
_cell_angle_gamma    93.0385

_symmetry_space_group_name_H-M    "P 1"
_symmetry_int_tables_number       1

loop_
  _symmetry_equiv_pos_as_xyz
  'x, y, z'

loop_
  _atom_site_label
  _atom_site_occupancy
  _atom_site_fract_x
  _atom_site_fract_y
  _atom_site_fract_z
  _atom_site_thermal_displace_type
  _atom_site_B_iso_or_equiv
  _atom_site_type_symbol
  C1       1.0000 0.63960  0.85733  0.51946  Biso   1.000  C
  C2       1.0000 0.34434  0.79353  0.35991  Biso   1.000  C
  C3       1.0000 0.57746  0.90261  0.84005  Biso   1.000  C
  C4       1.0000 0.35327  0.36153  0.01526  Biso   1.000  C
  C5       1.0000 0.99814  0.19180  0.10357  Biso   1.000  C
  C6       1.0000 0.64854  0.20198  0.95146  Biso   1.000  C
  C7       1.0000 0.99474  0.94565  0.34973  Biso   1.000  C
  C8       1.0000 0.41542  0.68213  0.06054  Biso   1.000  C
