# generated using pymatgen
data_C
_symmetry_space_group_name_H-M   'P 1'
_cell_length_a   2.56810232
_cell_length_b   3.75252559
_cell_length_c   4.47507761
_cell_angle_alpha   116.42844984
_cell_angle_beta   108.94427217
_cell_angle_gamma   84.83909768
_symmetry_Int_Tables_number   1
_chemical_formula_structural   C
_chemical_formula_sum   C6
_cell_volume   36.45110418
_cell_formula_units_Z   6
loop_
 _symmetry_equiv_pos_site_id
 _symmetry_equiv_pos_as_xyz
  1  'x, y, z'
loop_
 _atom_site_type_symbol
 _atom_site_label
 _atom_site_symmetry_multiplicity
 _atom_site_fract_x
 _atom_site_fract_y
 _atom_site_fract_z
 _atom_site_occupancy
  C  C1  1  0.268067  0.368886  0.451415  1
  C  C2  1  0.551883  0.022762  0.451415  1
  C  C3  1  0.995634  0.403176  0.107599  1
  C  C4  1  0.480498  0.644654  0.107599  1
  C  C5  1  0.339450  0.746991  0.795230  1
  C  C6  1  0.824315  -0.011529  0.795230  1
