# generated using pymatgen
data_C
_symmetry_space_group_name_H-M   'P 1'
_cell_length_a   2.49437704
_cell_length_b   3.35096354
_cell_length_c   3.40014568
_cell_angle_alpha   82.15346389
_cell_angle_beta   68.48132692
_cell_angle_gamma   68.14937772
_symmetry_Int_Tables_number   1
_chemical_formula_structural   C
_chemical_formula_sum   C4
_cell_volume   24.53991528
_cell_formula_units_Z   4
loop_
 _symmetry_equiv_pos_site_id
 _symmetry_equiv_pos_as_xyz
  1  'x, y, z'
loop_
 _atom_site_type_symbol
 _atom_site_label
 _atom_site_symmetry_multiplicity
 _atom_site_fract_x
 _atom_site_fract_y
 _atom_site_fract_z
 _atom_site_occupancy
  C  C1  1  0.199366  0.080234  0.737948  1
  C  C2  1  0.828830  0.821298  0.737948  1
  C  C3  1  0.213501  0.450765  0.339146  1
  C  C4  1  0.838547  0.450765  0.089056  1
