# generated using pymatgen
data_C
_symmetry_space_group_name_H-M   'P 1'
_cell_length_a   2.41204310
_cell_length_b   5.61643424
_cell_length_c   6.48602690
_cell_angle_alpha   111.05517798
_cell_angle_beta   89.99988364
_cell_angle_gamma   90.00007152
_symmetry_Int_Tables_number   1
_chemical_formula_structural   C
_chemical_formula_sum   C10
_cell_volume   82.00030091
_cell_formula_units_Z   10
loop_
 _symmetry_equiv_pos_site_id
 _symmetry_equiv_pos_as_xyz
  1  'x, y, z'
loop_
 _atom_site_type_symbol
 _atom_site_label
 _atom_site_symmetry_multiplicity
 _atom_site_fract_x
 _atom_site_fract_y
 _atom_site_fract_z
 _atom_site_occupancy
  C  C1  1  0.949768  0.134547  0.007383  1
  C  C2  1  0.949765  0.874512  0.869898  1
  C  C3  1  0.449766  0.470566  0.699749  1
  C  C4  1  0.949769  0.345156  0.639336  1
  C  C5  1  0.449766  0.739302  0.809994  1
  C  C6  1  0.449768  0.265220  0.081692  1
  C  C7  1  0.449764  0.525255  0.219178  1
  C  C8  1  0.949764  0.929201  0.389327  1
  C  C9  1  0.449766  0.054611  0.449740  1
  C  C10  1  0.949768  0.660466  0.279082  1
