# generated using pymatgen
data_C
_symmetry_space_group_name_H-M   'P 1'
_cell_length_a   2.78910660
_cell_length_b   5.44405547
_cell_length_c   9.45241201
_cell_angle_alpha   52.28556659
_cell_angle_beta   81.50749775
_cell_angle_gamma   85.10012093
_symmetry_Int_Tables_number   1
_chemical_formula_structural   C
_chemical_formula_sum   C10
_cell_volume   112.29180403
_cell_formula_units_Z   10
loop_
 _symmetry_equiv_pos_site_id
 _symmetry_equiv_pos_as_xyz
  1  'x, y, z'
loop_
 _atom_site_type_symbol
 _atom_site_label
 _atom_site_symmetry_multiplicity
 _atom_site_fract_x
 _atom_site_fract_y
 _atom_site_fract_z
 _atom_site_occupancy
  C  C1  1  0.837684  0.509341  0.224686  1
  C  C2  1  0.909919  0.445848  0.101164  1
  C  C3  1  0.461760  0.677384  0.253757  1
  C  C4  1  0.441018  0.990228  0.190471  1
  C  C5  1  0.931716  0.130060  0.162455  1
  C  C6  1  0.114593  0.427383  0.364842  1
  C  C7  1  0.063261  0.176884  0.551515  1
  C  C8  1  0.540063  1.063881  0.635503  1
  C  C9  1  0.487087  0.806572  0.827070  1
  C  C10  1  -0.036249  0.695158  -0.089167  1
