# generated using pymatgen
data_C
_symmetry_space_group_name_H-M   'P 1'
_cell_length_a   2.51198972
_cell_length_b   3.55787928
_cell_length_c   5.33546967
_cell_angle_alpha   92.51109192
_cell_angle_beta   90.00000000
_cell_angle_gamma   110.67201122
_symmetry_Int_Tables_number   1
_chemical_formula_structural   C
_chemical_formula_sum   C6
_cell_volume   44.56592713
_cell_formula_units_Z   6
loop_
 _symmetry_equiv_pos_site_id
 _symmetry_equiv_pos_as_xyz
  1  'x, y, z'
loop_
 _atom_site_type_symbol
 _atom_site_label
 _atom_site_symmetry_multiplicity
 _atom_site_fract_x
 _atom_site_fract_y
 _atom_site_fract_z
 _atom_site_occupancy
  C  C1  1  0.395919  0.816582  0.392983  1
  C  C2  1  0.924709  0.874158  0.518747  1
  C  C3  1  0.348879  0.722501  0.131751  1
  C  C4  1  0.004878  0.034498  0.788657  1
  C  C5  1  0.828629  0.681999  -0.024308  1
  C  C6  1  0.625573  0.275887  0.839000  1
