# generated using pymatgen
data_C
_symmetry_space_group_name_H-M   'P 1'
_cell_length_a   2.53907957
_cell_length_b   2.53907957
_cell_length_c   9.54320805
_cell_angle_alpha   89.99999848
_cell_angle_beta   90.00000000
_cell_angle_gamma   60.00000000
_symmetry_Int_Tables_number   1
_chemical_formula_structural   C
_chemical_formula_sum   C8
_cell_volume   53.28164764
_cell_formula_units_Z   8
loop_
 _symmetry_equiv_pos_site_id
 _symmetry_equiv_pos_as_xyz
  1  'x, y, z'
loop_
 _atom_site_type_symbol
 _atom_site_label
 _atom_site_symmetry_multiplicity
 _atom_site_fract_x
 _atom_site_fract_y
 _atom_site_fract_z
 _atom_site_occupancy
  C  C1  1  0.908492  0.968867  0.353291  1
  C  C2  1  0.575159  0.635534  0.406439  1
  C  C3  1  0.575159  0.635534  0.568565  1
  C  C4  1  0.908492  0.968868  0.186051  1
  C  C5  1  0.241824  0.302201  0.149315  1
  C  C6  1  0.241824  0.302201  0.789557  1
  C  C7  1  0.575159  0.635534  0.826891  1
  C  C8  1  0.241824  0.302201  0.622055  1
