data_image0
_cell_length_a       2.48612
_cell_length_b       2.48612
_cell_length_c       10.7692
_cell_angle_alpha    90
_cell_angle_beta     90
_cell_angle_gamma    120

_symmetry_space_group_name_H-M    "P 1"
_symmetry_int_tables_number       1

loop_
  _symmetry_equiv_pos_as_xyz
  'x, y, z'

loop_
  _atom_site_label
  _atom_site_occupancy
  _atom_site_fract_x
  _atom_site_fract_y
  _atom_site_fract_z
  _atom_site_thermal_displace_type
  _atom_site_B_iso_or_equiv
  _atom_site_type_symbol
  C1       1.0000 0.84518  0.43611  0.76441  Biso   1.000  C
  C2       1.0000 0.17851  0.10278  0.72550  Biso   1.000  C
  C3       1.0000 0.51185  0.76945  0.10180  Biso   1.000  C
  C4       1.0000 0.51185  0.76945  0.95856  Biso   1.000  C
  C5       1.0000 0.84518  0.43611  0.91262  Biso   1.000  C
  C6       1.0000 0.17851  0.10278  0.14899  Biso   1.000  C
  C7       1.0000 0.17851  0.10278  0.29461  Biso   1.000  C
  C8       1.0000 0.51185  0.76945  0.34085  Biso   1.000  C
  C9       1.0000 0.51185  0.76945  0.48975  Biso   1.000  C
  C10      1.0000 0.84518  0.43611  0.52608  Biso   1.000  C
