# generated using pymatgen
data_C
_symmetry_space_group_name_H-M   'P 1'
_cell_length_a   2.53899995
_cell_length_b   2.53899995
_cell_length_c   10.29562503
_cell_angle_alpha   90.00000000
_cell_angle_beta   89.99999999
_cell_angle_gamma   120.00000000
_symmetry_Int_Tables_number   1
_chemical_formula_structural   C
_chemical_formula_sum   C10
_cell_volume   57.47893768
_cell_formula_units_Z   10
loop_
 _symmetry_equiv_pos_site_id
 _symmetry_equiv_pos_as_xyz
  1  'x, y, z'
loop_
 _atom_site_type_symbol
 _atom_site_label
 _atom_site_symmetry_multiplicity
 _atom_site_fract_x
 _atom_site_fract_y
 _atom_site_fract_z
 _atom_site_occupancy
  C  C1  1  0.845177  0.436113  0.739943  1
  C  C2  1  0.178512  0.102780  0.722790  1
  C  C3  1  0.511846  0.769447  0.100202  1
  C  C4  1  0.511846  0.769447  0.950040  1
  C  C5  1  0.845177  0.436113  0.901088  1
  C  C6  1  0.178512  0.102780  0.150376  1
  C  C7  1  0.178512  0.102780  0.300749  1
  C  C8  1  0.511846  0.769447  0.350293  1
  C  C9  1  0.511846  0.769447  0.504262  1
  C  C10  1  0.845177  0.436113  0.543410  1
