# generated using pymatgen
data_C
_symmetry_space_group_name_H-M   'P 1'
_cell_length_a   2.82928158
_cell_length_b   3.60978333
_cell_length_c   7.46529920
_cell_angle_alpha   101.10058892
_cell_angle_beta   97.27740507
_cell_angle_gamma   105.06065412
_symmetry_Int_Tables_number   1
_chemical_formula_structural   C
_chemical_formula_sum   C8
_cell_volume   70.98020370
_cell_formula_units_Z   8
loop_
 _symmetry_equiv_pos_site_id
 _symmetry_equiv_pos_as_xyz
  1  'x, y, z'
loop_
 _atom_site_type_symbol
 _atom_site_label
 _atom_site_symmetry_multiplicity
 _atom_site_fract_x
 _atom_site_fract_y
 _atom_site_fract_z
 _atom_site_occupancy
  C  C1  1  0.807047  0.262034  0.841197  1
  C  C2  1  0.971110  0.657580  0.936992  1
  C  C3  1  0.039375  0.957332  0.841197  1
  C  C4  1  0.359312  0.045782  0.713398  1
  C  C5  1  0.260498  0.946969  0.515772  1
  C  C6  1  0.716554  0.903024  0.427883  1
  C  C7  1  0.615019  0.801490  0.224813  1
  C  C8  1  0.071388  0.757858  0.137550  1
