data_image0
_cell_length_a       3.25186
_cell_length_b       3.71369
_cell_length_c       4.67391
_cell_angle_alpha    75.2196
_cell_angle_beta     83.7544
_cell_angle_gamma    82.6271

_symmetry_space_group_name_H-M    "P 1"
_symmetry_int_tables_number       1

loop_
  _symmetry_equiv_pos_as_xyz
  'x, y, z'

loop_
  _atom_site_label
  _atom_site_occupancy
  _atom_site_fract_x
  _atom_site_fract_y
  _atom_site_fract_z
  _atom_site_thermal_displace_type
  _atom_site_B_iso_or_equiv
  _atom_site_type_symbol
  C1       1.0000 0.16866  0.32461  0.58455  Biso   1.000  C
  C2       1.0000 0.12220  0.40834  0.28187  Biso   1.000  C
  C3       1.0000 0.96436  0.77949  0.12526  Biso   1.000  C
  C4       1.0000 0.74176  0.77940  0.88730  Biso   1.000  C
  C5       1.0000 0.10527  0.16455  0.07282  Biso   1.000  C
  C6       1.0000 0.81777  0.40994  0.81956  Biso   1.000  C
  C7       1.0000 0.47630  0.15261  0.81055  Biso   1.000  C
