data_image0
_cell_length_a       4.27841
_cell_length_b       3.77572
_cell_length_c       4.37037
_cell_angle_alpha    82.6861
_cell_angle_beta     60.2795
_cell_angle_gamma    68.488

_symmetry_space_group_name_H-M    "P 1"
_symmetry_int_tables_number       1

loop_
  _symmetry_equiv_pos_as_xyz
  'x, y, z'

loop_
  _atom_site_label
  _atom_site_occupancy
  _atom_site_fract_x
  _atom_site_fract_y
  _atom_site_fract_z
  _atom_site_thermal_displace_type
  _atom_site_B_iso_or_equiv
  _atom_site_type_symbol
  C1       1.0000 0.40104  0.23859  0.17897  Biso   1.000  C
  C2       1.0000 0.02834  0.26568  0.34260  Biso   1.000  C
  C3       1.0000 0.68013  0.82338  0.09977  Biso   1.000  C
  C4       1.0000 0.01836  0.86631  0.42420  Biso   1.000  C
  C5       1.0000 0.41102  0.63796  0.09737  Biso   1.000  C
  C6       1.0000 0.74925  0.68089  0.42180  Biso   1.000  C
  C7       1.0000 0.38028  0.72190  0.75992  Biso   1.000  C
  C8       1.0000 0.04910  0.78237  0.76165  Biso   1.000  C
