# generated using pymatgen
data_C
_symmetry_space_group_name_H-M   'P 1'
_cell_length_a   3.48545958
_cell_length_b   4.55022371
_cell_length_c   4.55022371
_cell_angle_alpha   84.57947222
_cell_angle_beta   99.93587983
_cell_angle_gamma   99.93587983
_symmetry_Int_Tables_number   1
_chemical_formula_structural   C
_chemical_formula_sum   C8
_cell_volume   69.86050551
_cell_formula_units_Z   8
loop_
 _symmetry_equiv_pos_site_id
 _symmetry_equiv_pos_as_xyz
  1  'x, y, z'
loop_
 _atom_site_type_symbol
 _atom_site_label
 _atom_site_symmetry_multiplicity
 _atom_site_fract_x
 _atom_site_fract_y
 _atom_site_fract_z
 _atom_site_occupancy
  C  C1  1  0.268611  0.661345  -0.008171  1
  C  C2  1  0.268611  0.895368  0.757806  1
  C  C3  1  0.723664  0.602544  0.462171  1
  C  C4  1  0.723664  0.365712  0.699005  1
  C  C5  1  0.376013  0.202872  0.792614  1
  C  C6  1  0.376012  0.696154  0.299331  1
  C  C7  1  0.108656  0.372153  0.876393  1
  C  C8  1  0.108656  0.779932  0.468613  1
