data_image0
_cell_length_a       4.65921
_cell_length_b       4.53612
_cell_length_c       4.83334
_cell_angle_alpha    89.9558
_cell_angle_beta     88.5628
_cell_angle_gamma    103.501

_symmetry_space_group_name_H-M    "P 1"
_symmetry_int_tables_number       1

loop_
  _symmetry_equiv_pos_as_xyz
  'x, y, z'

loop_
  _atom_site_label
  _atom_site_occupancy
  _atom_site_fract_x
  _atom_site_fract_y
  _atom_site_fract_z
  _atom_site_thermal_displace_type
  _atom_site_B_iso_or_equiv
  _atom_site_type_symbol
  C1       1.0000 0.67725  0.88950  0.16672  Biso   1.000  C
  C2       1.0000 0.81525  0.66099  0.12907  Biso   1.000  C
  C3       1.0000 0.66018  0.37288  0.17560  Biso   1.000  C
  C4       1.0000 0.83232  0.17761  0.12020  Biso   1.000  C
  C5       1.0000 0.27722  0.37110  0.53332  Biso   1.000  C
  C6       1.0000 0.21528  0.17939  0.76248  Biso   1.000  C
  C7       1.0000 0.28046  0.69556  0.53314  Biso   1.000  C
  C8       1.0000 0.21204  0.85493  0.76266  Biso   1.000  C
  C9       1.0000 0.14267  0.31736  0.03453  Biso   1.000  C
  C10      1.0000 0.34983  0.23312  0.26127  Biso   1.000  C
  C11      1.0000 0.13707  0.68211  0.03689  Biso   1.000  C
  C12      1.0000 0.35544  0.86838  0.25890  Biso   1.000  C
