# generated using pymatgen
data_C
_symmetry_space_group_name_H-M   'P 1'
_cell_length_a   3.63885195
_cell_length_b   3.57838527
_cell_length_c   3.64492809
_cell_angle_alpha   72.80401659
_cell_angle_beta   72.05065879
_cell_angle_gamma   72.13212655
_symmetry_Int_Tables_number   1
_chemical_formula_structural   C
_chemical_formula_sum   C6
_cell_volume   41.90043855
_cell_formula_units_Z   6
loop_
 _symmetry_equiv_pos_site_id
 _symmetry_equiv_pos_as_xyz
  1  'x, y, z'
loop_
 _atom_site_type_symbol
 _atom_site_label
 _atom_site_symmetry_multiplicity
 _atom_site_fract_x
 _atom_site_fract_y
 _atom_site_fract_z
 _atom_site_occupancy
  C  C1  1  0.711117  0.487261  0.231430  1
  C  C2  1  0.711343  0.809627  0.896539  1
  C  C3  1  0.096396  0.227966  0.323207  1
  C  C4  1  0.050460  0.822311  0.579991  1
  C  C5  1  0.380390  0.120079  0.883090  1
  C  C6  1  0.312344  0.427598  0.494233  1
