data_image0
_cell_length_a       4.37483
_cell_length_b       4.37483
_cell_length_c       4.67212
_cell_angle_alpha    101.713
_cell_angle_beta     101.713
_cell_angle_gamma    118.085

_symmetry_space_group_name_H-M    "P 1"
_symmetry_int_tables_number       1

loop_
  _symmetry_equiv_pos_as_xyz
  'x, y, z'

loop_
  _atom_site_label
  _atom_site_occupancy
  _atom_site_fract_x
  _atom_site_fract_y
  _atom_site_fract_z
  _atom_site_thermal_displace_type
  _atom_site_B_iso_or_equiv
  _atom_site_type_symbol
  C1       1.0000 0.20240  0.48100  0.63993  Biso   1.000  C
  C2       1.0000 0.91643  0.19503  0.68510  Biso   1.000  C
  C3       1.0000 0.67602  0.37970  0.08346  Biso   1.000  C
  C4       1.0000 0.44281  0.29632  0.24157  Biso   1.000  C
  C5       1.0000 0.01772  0.72141  0.24157  Biso   1.000  C
  C6       1.0000 0.10110  0.95462  0.08346  Biso   1.000  C
  C7       1.0000 0.53581  0.47438  0.58783  Biso   1.000  C
  C8       1.0000 0.58301  0.20164  0.73720  Biso   1.000  C
  C9       1.0000 0.92304  0.86161  0.73720  Biso   1.000  C
  C10      1.0000 0.19578  0.81441  0.58783  Biso   1.000  C
