# generated using pymatgen
data_C
_symmetry_space_group_name_H-M   'P 1'
_cell_length_a   4.40350659
_cell_length_b   4.40350659
_cell_length_c   4.69499050
_cell_angle_alpha   102.17008142
_cell_angle_beta   102.17008142
_cell_angle_gamma   118.16886455
_symmetry_Int_Tables_number   1
_chemical_formula_structural   C
_chemical_formula_sum   C10
_cell_volume   73.18969700
_cell_formula_units_Z   10
loop_
 _symmetry_equiv_pos_site_id
 _symmetry_equiv_pos_as_xyz
  1  'x, y, z'
loop_
 _atom_site_type_symbol
 _atom_site_label
 _atom_site_symmetry_multiplicity
 _atom_site_fract_x
 _atom_site_fract_y
 _atom_site_fract_z
 _atom_site_occupancy
  C  C1  1  0.213757  0.492357  0.643641  1
  C  C2  1  0.905068  0.183668  0.681389  1
  C  C3  1  0.680913  0.380587  0.082403  1
  C  C4  1  0.437910  0.295437  0.242627  1
  C  C5  1  0.016836  0.716512  0.242627  1
  C  C6  1  0.101987  0.959514  0.082403  1
  C  C7  1  0.538434  0.476620  0.588628  1
  C  C8  1  0.580389  0.199405  0.736402  1
  C  C9  1  0.920806  0.858990  0.736402  1
  C  C10  1  0.198020  0.817033  0.588628  1
