data_image0
_cell_length_a       2.66189
_cell_length_b       4.82318
_cell_length_c       4.27316
_cell_angle_alpha    57.9977
_cell_angle_beta     66.0478
_cell_angle_gamma    65.1027

_symmetry_space_group_name_H-M    "P 1"
_symmetry_int_tables_number       1

loop_
  _symmetry_equiv_pos_as_xyz
  'x, y, z'

loop_
  _atom_site_label
  _atom_site_occupancy
  _atom_site_fract_x
  _atom_site_fract_y
  _atom_site_fract_z
  _atom_site_thermal_displace_type
  _atom_site_B_iso_or_equiv
  _atom_site_type_symbol
  C1       1.0000 0.01071  0.48612  0.96124  Biso   1.000  C
  C2       1.0000 0.42186  0.65989  0.87248  Biso   1.000  C
  C3       1.0000 0.03019  0.25196  0.58595  Biso   1.000  C
  C4       1.0000 0.03767  0.18298  0.30256  Biso   1.000  C
  C5       1.0000 0.93830  0.57981  0.58395  Biso   1.000  C
  C6       1.0000 0.07612  0.90182  0.27811  Biso   1.000  C
  C7       1.0000 0.15523  0.96734  0.90459  Biso   1.000  C
