# generated using pymatgen
data_C
_symmetry_space_group_name_H-M   'P 1'
_cell_length_a   3.25244226
_cell_length_b   4.04135410
_cell_length_c   5.77221437
_cell_angle_alpha   97.38389412
_cell_angle_beta   93.60061945
_cell_angle_gamma   107.43524164
_symmetry_Int_Tables_number   1
_chemical_formula_structural   C
_chemical_formula_sum   C9
_cell_volume   71.37275263
_cell_formula_units_Z   9
loop_
 _symmetry_equiv_pos_site_id
 _symmetry_equiv_pos_as_xyz
  1  'x, y, z'
loop_
 _atom_site_type_symbol
 _atom_site_label
 _atom_site_symmetry_multiplicity
 _atom_site_fract_x
 _atom_site_fract_y
 _atom_site_fract_z
 _atom_site_occupancy
  C  C1  1  0.022428  0.029804  0.306260  1
  C  C2  1  0.623183  0.864593  0.171216  1
  C  C3  1  0.289476  0.819436  0.315653  1
  C  C4  1  0.309012  0.645366  0.511785  1
  C  C5  1  0.584186  0.847030  0.719228  1
  C  C6  1  0.863561  0.190707  0.713089  1
  C  C7  1  0.057142  0.289241  0.504073  1
  C  C8  1  0.957684  0.456877  0.895580  1
  C  C9  1  0.557869  0.673172  0.934036  1
