# generated using pymatgen
data_C
_symmetry_space_group_name_H-M   'P 1'
_cell_length_a   2.70358130
_cell_length_b   4.78819232
_cell_length_c   4.78819232
_cell_angle_alpha   116.13546957
_cell_angle_beta   98.92520829
_cell_angle_gamma   98.92520829
_symmetry_Int_Tables_number   1
_chemical_formula_structural   C
_chemical_formula_sum   C8
_cell_volume   53.19906399
_cell_formula_units_Z   8
loop_
 _symmetry_equiv_pos_site_id
 _symmetry_equiv_pos_as_xyz
  1  'x, y, z'
loop_
 _atom_site_type_symbol
 _atom_site_label
 _atom_site_symmetry_multiplicity
 _atom_site_fract_x
 _atom_site_fract_y
 _atom_site_fract_z
 _atom_site_occupancy
  C  C1  1  0.524365  0.797004  0.864844  1
  C  C2  1  0.384377  0.642732  0.047026  1
  C  C3  1  0.861931  0.141637  0.545930  1
  C  C4  1  0.721943  0.323819  0.391658  1
  C  C5  1  0.623154  0.807983  0.380679  1
  C  C6  1  0.623155  0.634423  0.554241  1
  C  C7  1  0.623156  0.167853  0.020811  1
  C  C8  1  0.123155  0.282925  0.905739  1
