# generated using pymatgen
data_C
_symmetry_space_group_name_H-M   'P 1'
_cell_length_a   3.49974383
_cell_length_b   4.36009884
_cell_length_c   4.92890129
_cell_angle_alpha   89.46592084
_cell_angle_beta   71.37729066
_cell_angle_gamma   76.33124292
_symmetry_Int_Tables_number   1
_chemical_formula_structural   C
_chemical_formula_sum   C9
_cell_volume   69.07583649
_cell_formula_units_Z   9
loop_
 _symmetry_equiv_pos_site_id
 _symmetry_equiv_pos_as_xyz
  1  'x, y, z'
loop_
 _atom_site_type_symbol
 _atom_site_label
 _atom_site_symmetry_multiplicity
 _atom_site_fract_x
 _atom_site_fract_y
 _atom_site_fract_z
 _atom_site_occupancy
  C  C1  1  0.160230  0.923160  0.295653  1
  C  C2  1  0.525588  0.812161  0.354463  1
  C  C3  1  -0.005078  0.252415  0.342687  1
  C  C4  1  0.485482  0.704204  0.636357  1
  C  C5  1  0.112138  0.897012  0.846408  1
  C  C6  1  0.025930  0.409437  0.082613  1
  C  C7  1  0.970779  0.246765  0.847700  1
  C  C8  1  0.800605  0.406676  0.630969  1
  C  C9  1  0.956821  0.757369  0.132787  1
