# generated using pymatgen
data_C
_symmetry_space_group_name_H-M   'P 1'
_cell_length_a   2.60330519
_cell_length_b   3.48194219
_cell_length_c   5.07552491
_cell_angle_alpha   110.57036873
_cell_angle_beta   90.82601500
_cell_angle_gamma   109.52219325
_symmetry_Int_Tables_number   1
_chemical_formula_structural   C
_chemical_formula_sum   C6
_cell_volume   40.14217645
_cell_formula_units_Z   6
loop_
 _symmetry_equiv_pos_site_id
 _symmetry_equiv_pos_as_xyz
  1  'x, y, z'
loop_
 _atom_site_type_symbol
 _atom_site_label
 _atom_site_symmetry_multiplicity
 _atom_site_fract_x
 _atom_site_fract_y
 _atom_site_fract_z
 _atom_site_occupancy
  C  C1  1  0.865893  0.120242  0.019592  1
  C  C2  1  0.707427  0.861102  0.210235  1
  C  C3  1  0.867180  0.085826  0.511137  1
  C  C4  1  0.449135  0.418801  0.093341  1
  C  C5  1  0.117085  0.550463  0.635706  1
  C  C6  1  0.740933  0.818742  0.700317  1
