data_image0
_cell_length_a       3.76771
_cell_length_b       4.98187
_cell_length_c       4.92537
_cell_angle_alpha    60.3104
_cell_angle_beta     68.0148
_cell_angle_gamma    75.678

_symmetry_space_group_name_H-M    "P 1"
_symmetry_int_tables_number       1

loop_
  _symmetry_equiv_pos_as_xyz
  'x, y, z'

loop_
  _atom_site_label
  _atom_site_occupancy
  _atom_site_fract_x
  _atom_site_fract_y
  _atom_site_fract_z
  _atom_site_thermal_displace_type
  _atom_site_B_iso_or_equiv
  _atom_site_type_symbol
  C1       1.0000 0.68014  0.75296  0.89564  Biso   1.000  C
  C2       1.0000 0.73518  0.59659  0.20904  Biso   1.000  C
  C3       1.0000 0.70351  0.75416  0.38863  Biso   1.000  C
  C4       1.0000 0.71181  0.59539  0.71605  Biso   1.000  C
  C5       1.0000 0.58601  0.10614  0.73801  Biso   1.000  C
  C6       1.0000 0.77066  0.24627  0.86745  Biso   1.000  C
  C7       1.0000 0.19112  0.17497  0.69429  Biso   1.000  C
  C8       1.0000 0.22421  0.17458  0.41038  Biso   1.000  C
  C9       1.0000 0.64466  0.10328  0.23723  Biso   1.000  C
  C10      1.0000 0.82931  0.24340  0.36667  Biso   1.000  C
