# generated using pymatgen
data_C
_symmetry_space_group_name_H-M   'P 1'
_cell_length_a   3.54435317
_cell_length_b   4.60518452
_cell_length_c   5.12515857
_cell_angle_alpha   73.88382502
_cell_angle_beta   89.99376733
_cell_angle_gamma   83.20061028
_symmetry_Int_Tables_number   1
_chemical_formula_structural   C
_chemical_formula_sum   C10
_cell_volume   79.75502186
_cell_formula_units_Z   10
loop_
 _symmetry_equiv_pos_site_id
 _symmetry_equiv_pos_as_xyz
  1  'x, y, z'
loop_
 _atom_site_type_symbol
 _atom_site_label
 _atom_site_symmetry_multiplicity
 _atom_site_fract_x
 _atom_site_fract_y
 _atom_site_fract_z
 _atom_site_occupancy
  C  C1  1  0.680474  0.752192  0.910503  1
  C  C2  1  0.734847  0.597357  0.194175  1
  C  C3  1  0.680599  0.750499  0.405912  1
  C  C4  1  0.734722  0.599048  0.698765  1
  C  C5  1  0.566291  0.073131  0.828369  1
  C  C6  1  0.849081  0.277837  0.777121  1
  C  C7  1  0.207698  0.175303  0.692321  1
  C  C8  1  0.207622  0.174245  0.412356  1
  C  C9  1  0.566241  0.071711  0.327556  1
  C  C10  1  0.849029  0.276417  0.276308  1
