# generated using pymatgen
data_C
_symmetry_space_group_name_H-M   'P 1'
_cell_length_a   4.41843634
_cell_length_b   3.69318571
_cell_length_c   4.41843634
_cell_angle_alpha   110.81978364
_cell_angle_beta   93.88750285
_cell_angle_gamma   110.81978364
_symmetry_Int_Tables_number   1
_chemical_formula_structural   C
_chemical_formula_sum   C7
_cell_volume   61.41732622
_cell_formula_units_Z   7
loop_
 _symmetry_equiv_pos_site_id
 _symmetry_equiv_pos_as_xyz
  1  'x, y, z'
loop_
 _atom_site_type_symbol
 _atom_site_label
 _atom_site_symmetry_multiplicity
 _atom_site_fract_x
 _atom_site_fract_y
 _atom_site_fract_z
 _atom_site_occupancy
  C  C1  1  0.100153  0.763670  0.926209  1
  C  C2  1  0.159234  0.629344  0.174924  1
  C  C3  1  0.482479  0.859836  0.386837  1
  C  C4  1  0.851436  0.897996  0.867128  1
  C  C5  1  0.882866  0.263670  0.143496  1
  C  C6  1  0.662327  0.263670  0.364034  1
  C  C7  1  0.639526  0.667502  0.543882  1
