data_image0
_cell_length_a       2.89431
_cell_length_b       4.38966
_cell_length_c       4.56693
_cell_angle_alpha    113.648
_cell_angle_beta     92.4008
_cell_angle_gamma    111.802

_symmetry_space_group_name_H-M    "P 1"
_symmetry_int_tables_number       1

loop_
  _symmetry_equiv_pos_as_xyz
  'x, y, z'

loop_
  _atom_site_label
  _atom_site_occupancy
  _atom_site_fract_x
  _atom_site_fract_y
  _atom_site_fract_z
  _atom_site_thermal_displace_type
  _atom_site_B_iso_or_equiv
  _atom_site_type_symbol
  C1       1.0000 0.95909  0.09504  0.17075  Biso   1.000  C
  C2       1.0000 0.96903  0.44794  0.22862  Biso   1.000  C
  C3       1.0000 0.10561  0.06923  0.45118  Biso   1.000  C
  C4       1.0000 0.99344  0.74979  0.50849  Biso   1.000  C
  C5       1.0000 0.37043  0.40302  0.75458  Biso   1.000  C
  C6       1.0000 0.95433  0.48146  0.92434  Biso   1.000  C
  C7       1.0000 0.85226  0.75522  0.83475  Biso   1.000  C
