# generated using pymatgen
data_C
_symmetry_space_group_name_H-M   'P 1'
_cell_length_a   2.53768874
_cell_length_b   5.28907367
_cell_length_c   6.00087701
_cell_angle_alpha   104.03533499
_cell_angle_beta   92.05777244
_cell_angle_gamma   92.80867490
_symmetry_Int_Tables_number   1
_chemical_formula_structural   C
_chemical_formula_sum   C10
_cell_volume   77.95052858
_cell_formula_units_Z   10
loop_
 _symmetry_equiv_pos_site_id
 _symmetry_equiv_pos_as_xyz
  1  'x, y, z'
loop_
 _atom_site_type_symbol
 _atom_site_label
 _atom_site_symmetry_multiplicity
 _atom_site_fract_x
 _atom_site_fract_y
 _atom_site_fract_z
 _atom_site_occupancy
  C  C1  1  0.116514  0.975689  0.623739  1
  C  C2  1  0.621686  0.088694  0.583221  1
  C  C3  1  0.136675  0.754750  0.722447  1
  C  C4  1  0.136764  0.494611  0.584185  1
  C  C5  1  0.380935  0.034592  0.108614  1
  C  C6  1  0.571444  0.279444  0.240556  1
  C  C7  1  0.190975  0.795549  0.965855  1
  C  C8  1  0.627011  0.485631  0.127799  1
  C  C9  1  0.134406  0.583388  0.070986  1
  C  C10  1  0.621193  0.341257  0.501183  1
