# generated using pymatgen
data_C
_symmetry_space_group_name_H-M   'P 1'
_cell_length_a   3.60085844
_cell_length_b   4.62045644
_cell_length_c   6.68462202
_cell_angle_alpha   103.59801879
_cell_angle_beta   97.57758766
_cell_angle_gamma   90.64629650
_symmetry_Int_Tables_number   1
_chemical_formula_structural   C
_chemical_formula_sum   C14
_cell_volume   107.05140438
_cell_formula_units_Z   14
loop_
 _symmetry_equiv_pos_site_id
 _symmetry_equiv_pos_as_xyz
  1  'x, y, z'
loop_
 _atom_site_type_symbol
 _atom_site_label
 _atom_site_symmetry_multiplicity
 _atom_site_fract_x
 _atom_site_fract_y
 _atom_site_fract_z
 _atom_site_occupancy
  C  C1  1  0.940323  0.103086  0.338627  1
  C  C2  1  -0.021743  0.803469  0.339586  1
  C  C3  1  0.093559  0.186291  0.178810  1
  C  C4  1  0.222294  0.244403  0.002416  1
  C  C5  1  0.520208  0.474047  0.027519  1
  C  C6  1  0.677490  0.600114  0.238707  1
  C  C7  1  0.255922  0.718830  0.484298  1
  C  C8  1  0.312955  0.881391  0.694006  1
  C  C9  1  0.672579  0.838935  0.808889  1
  C  C10  1  0.525096  0.515148  0.406934  1
  C  C11  1  0.742952  0.297176  0.486931  1
  C  C12  1  0.813963  0.304903  0.704119  1
  C  C13  1  0.684943  0.548951  0.857787  1
  C  C14  1  0.008507  0.057918  0.797150  1
