# generated using pymatgen
data_C
_symmetry_space_group_name_H-M   'P 1'
_cell_length_a   2.56892766
_cell_length_b   4.25578212
_cell_length_c   4.75866669
_cell_angle_alpha   82.60232592
_cell_angle_beta   75.36846393
_cell_angle_gamma   86.13260465
_symmetry_Int_Tables_number   1
_chemical_formula_structural   C
_chemical_formula_sum   C8
_cell_volume   49.88628737
_cell_formula_units_Z   8
loop_
 _symmetry_equiv_pos_site_id
 _symmetry_equiv_pos_as_xyz
  1  'x, y, z'
loop_
 _atom_site_type_symbol
 _atom_site_label
 _atom_site_symmetry_multiplicity
 _atom_site_fract_x
 _atom_site_fract_y
 _atom_site_fract_z
 _atom_site_occupancy
  C  C1  1  0.805913  0.936249  0.724385  1
  C  C2  1  0.266060  0.104618  0.807505  1
  C  C3  1  0.364878  0.612235  0.365915  1
  C  C4  1  0.109775  0.904311  0.367319  1
  C  C5  1  0.307965  0.452956  0.671772  1
  C  C6  1  0.728003  0.579205  0.819839  1
  C  C7  1  0.579761  0.401236  0.134724  1
  C  C8  1  0.113623  0.178613  0.139501  1
