# generated using pymatgen
data_C
_symmetry_space_group_name_H-M   'P 1'
_cell_length_a   3.84815660
_cell_length_b   4.76110676
_cell_length_c   5.64258409
_cell_angle_alpha   66.82119423
_cell_angle_beta   76.38326770
_cell_angle_gamma   67.41406869
_symmetry_Int_Tables_number   1
_chemical_formula_structural   C
_chemical_formula_sum   C10
_cell_volume   87.31353495
_cell_formula_units_Z   10
loop_
 _symmetry_equiv_pos_site_id
 _symmetry_equiv_pos_as_xyz
  1  'x, y, z'
loop_
 _atom_site_type_symbol
 _atom_site_label
 _atom_site_symmetry_multiplicity
 _atom_site_fract_x
 _atom_site_fract_y
 _atom_site_fract_z
 _atom_site_occupancy
  C  C1  1  0.347736  0.501512  0.602740  1
  C  C2  1  0.132578  0.725291  0.729767  1
  C  C3  1  0.617436  0.203276  0.715464  1
  C  C4  1  0.343023  0.939700  0.193965  1
  C  C5  1  0.141831  0.173263  0.319535  1
  C  C6  1  0.299438  0.625095  0.331683  1
  C  C7  1  0.143675  0.494102  0.212642  1
  C  C8  1  0.614622  0.971654  0.978357  1
  C  C9  1  -0.043473  0.059516  0.568124  1
  C  C10  1  -0.035829  0.698897  0.987283  1
