# generated using pymatgen
data_C
_symmetry_space_group_name_H-M   'P 1'
_cell_length_a   2.55456916
_cell_length_b   2.56561906
_cell_length_c   6.91640014
_cell_angle_alpha   79.99846982
_cell_angle_beta   80.33839448
_cell_angle_gamma   90.87098607
_symmetry_Int_Tables_number   1
_chemical_formula_structural   C
_chemical_formula_sum   C7
_cell_volume   43.96243008
_cell_formula_units_Z   7
loop_
 _symmetry_equiv_pos_site_id
 _symmetry_equiv_pos_as_xyz
  1  'x, y, z'
loop_
 _atom_site_type_symbol
 _atom_site_label
 _atom_site_symmetry_multiplicity
 _atom_site_fract_x
 _atom_site_fract_y
 _atom_site_fract_z
 _atom_site_occupancy
  C  C1  1  -0.006209  0.081982  0.971052  1
  C  C2  1  0.049088  0.252057  0.770059  1
  C  C3  1  0.776334  0.820404  0.476361  1
  C  C4  1  0.681026  0.422924  0.649943  1
  C  C5  1  -0.047551  0.518051  0.093521  1
  C  C6  1  0.332875  0.902055  0.353833  1
  C  C7  1  0.391960  0.455492  0.223150  1
