# generated using pymatgen
data_C
_symmetry_space_group_name_H-M   'P 1'
_cell_length_a   2.66654004
_cell_length_b   4.31592261
_cell_length_c   4.73512117
_cell_angle_alpha   82.75674057
_cell_angle_beta   79.81203587
_cell_angle_gamma   74.66058764
_symmetry_Int_Tables_number   1
_chemical_formula_structural   C
_chemical_formula_sum   C8
_cell_volume   51.54377756
_cell_formula_units_Z   8
loop_
 _symmetry_equiv_pos_site_id
 _symmetry_equiv_pos_as_xyz
  1  'x, y, z'
loop_
 _atom_site_type_symbol
 _atom_site_label
 _atom_site_symmetry_multiplicity
 _atom_site_fract_x
 _atom_site_fract_y
 _atom_site_fract_z
 _atom_site_occupancy
  C  C1  1  0.901048  0.718235  0.379512  1
  C  C2  1  0.046095  0.910903  0.124974  1
  C  C3  1  0.525979  0.393972  0.893212  1
  C  C4  1  0.678235  0.229130  0.635623  1
  C  C5  1  0.814381  0.404928  0.370105  1
  C  C6  1  0.843878  0.256100  0.114397  1
  C  C7  1  0.789371  0.863924  0.669105  1
  C  C8  1  0.285458  0.754390  0.843800  1
