# generated using pymatgen
data_C
_symmetry_space_group_name_H-M   'P 1'
_cell_length_a   4.61190712
_cell_length_b   4.61190712
_cell_length_c   4.84707280
_cell_angle_alpha   105.59636158
_cell_angle_beta   105.59636158
_cell_angle_gamma   91.01137966
_symmetry_Int_Tables_number   1
_chemical_formula_structural   C
_chemical_formula_sum   C10
_cell_volume   95.19295896
_cell_formula_units_Z   10
loop_
 _symmetry_equiv_pos_site_id
 _symmetry_equiv_pos_as_xyz
  1  'x, y, z'
loop_
 _atom_site_type_symbol
 _atom_site_label
 _atom_site_symmetry_multiplicity
 _atom_site_fract_x
 _atom_site_fract_y
 _atom_site_fract_z
 _atom_site_occupancy
  C  C1  1  0.751649  0.408497  0.431645  1
  C  C2  1  0.988386  0.645234  0.513482  1
  C  C3  1  0.914923  0.010564  0.100238  1
  C  C4  1  0.046754  0.110345  0.908932  1
  C  C5  1  0.847510  0.109589  0.374213  1
  C  C6  1  0.948994  0.957945  0.596488  1
  C  C7  1  0.386318  0.481960  0.844889  1
  C  C8  1  0.286537  0.350128  0.036195  1
  C  C9  1  0.287294  0.549371  0.570915  1
  C  C10  1  0.438938  0.447889  0.348640  1
