# generated using pymatgen
data_C
_symmetry_space_group_name_H-M   'P 1'
_cell_length_a   2.51076313
_cell_length_b   5.87846661
_cell_length_c   8.85190585
_cell_angle_alpha   59.99027894
_cell_angle_beta   81.84679651
_cell_angle_gamma   77.66917772
_symmetry_Int_Tables_number   1
_chemical_formula_structural   C
_chemical_formula_sum   C10
_cell_volume   110.42978664
_cell_formula_units_Z   10
loop_
 _symmetry_equiv_pos_site_id
 _symmetry_equiv_pos_as_xyz
  1  'x, y, z'
loop_
 _atom_site_type_symbol
 _atom_site_label
 _atom_site_symmetry_multiplicity
 _atom_site_fract_x
 _atom_site_fract_y
 _atom_site_fract_z
 _atom_site_occupancy
  C  C1  1  0.930066  1.043777  0.278080  1
  C  C2  1  0.815505  0.309420  0.241551  1
  C  C3  1  0.042215  0.774609  0.322944  1
  C  C4  1  0.800081  0.513811  0.068008  1
  C  C5  1  0.774745  0.732778  -0.100287  1
  C  C6  1  0.598465  0.641633  0.343419  1
  C  C7  1  0.715032  0.371470  0.380448  1
  C  C8  1  0.262732  0.841030  0.815488  1
  C  C9  1  0.240129  1.059343  0.642382  1
  C  C10  1  0.730686  0.163641  0.556968  1
