# generated using pymatgen
data_C
_symmetry_space_group_name_H-M   'P 1'
_cell_length_a   2.55636909
_cell_length_b   4.67938435
_cell_length_c   4.71051043
_cell_angle_alpha   75.84162482
_cell_angle_beta   89.99997523
_cell_angle_gamma   74.14810602
_symmetry_Int_Tables_number   1
_chemical_formula_structural   C
_chemical_formula_sum   C8
_cell_volume   52.42376802
_cell_formula_units_Z   8
loop_
 _symmetry_equiv_pos_site_id
 _symmetry_equiv_pos_as_xyz
  1  'x, y, z'
loop_
 _atom_site_type_symbol
 _atom_site_label
 _atom_site_symmetry_multiplicity
 _atom_site_fract_x
 _atom_site_fract_y
 _atom_site_fract_z
 _atom_site_occupancy
  C  C1  1  0.208108  0.526824  0.876899  1
  C  C2  1  0.293243  0.356555  0.168634  1
  C  C3  1  0.214897  0.513247  0.386969  1
  C  C4  1  0.300030  0.342980  0.678703  1
  C  C5  1  0.466740  0.009558  0.814151  1
  C  C6  1  0.465426  0.012189  0.203436  1
  C  C7  1  0.041398  0.860245  0.741451  1
  C  C8  1  0.042710  0.857614  0.352166  1
