# generated using pymatgen
data_C
_symmetry_space_group_name_H-M   'P 1'
_cell_length_a   3.97648908
_cell_length_b   5.43856052
_cell_length_c   5.55731961
_cell_angle_alpha   101.61933647
_cell_angle_beta   114.92904007
_cell_angle_gamma   103.60137203
_symmetry_Int_Tables_number   1
_chemical_formula_structural   C
_chemical_formula_sum   C12
_cell_volume   99.58269321
_cell_formula_units_Z   12
loop_
 _symmetry_equiv_pos_site_id
 _symmetry_equiv_pos_as_xyz
  1  'x, y, z'
loop_
 _atom_site_type_symbol
 _atom_site_label
 _atom_site_symmetry_multiplicity
 _atom_site_fract_x
 _atom_site_fract_y
 _atom_site_fract_z
 _atom_site_occupancy
  C  C1  1  0.046109  0.847325  0.830041  1
  C  C2  1  0.862552  0.628086  0.560788  1
  C  C3  1  0.646468  0.369700  0.550016  1
  C  C4  1  0.231929  0.252965  0.363606  1
  C  C5  1  0.252446  0.764354  0.067482  1
  C  C6  1  0.673283  0.838540  0.217946  1
  C  C7  1  0.037136  0.566137  0.143892  1
  C  C8  1  0.082460  0.309053  0.109871  1
  C  C9  1  0.864747  0.199363  0.617954  1
  C  C10  1  -0.004681  0.112839  0.855862  1
  C  C11  1  0.938910  0.098186  0.401727  1
  C  C12  1  0.848645  0.649245  0.300026  1
