data_image0
_cell_length_a       3.57056
_cell_length_b       3.7213
_cell_length_c       4.41096
_cell_angle_alpha    90.5527
_cell_angle_beta     82.88
_cell_angle_gamma    78.6794

_symmetry_space_group_name_H-M    "P 1"
_symmetry_int_tables_number       1

loop_
  _symmetry_equiv_pos_as_xyz
  'x, y, z'

loop_
  _atom_site_label
  _atom_site_occupancy
  _atom_site_fract_x
  _atom_site_fract_y
  _atom_site_fract_z
  _atom_site_thermal_displace_type
  _atom_site_B_iso_or_equiv
  _atom_site_type_symbol
  C1       1.0000 0.30282  0.40108  0.62831  Biso   1.000  C
  C2       1.0000 0.38200  0.08622  0.44595  Biso   1.000  C
  C3       1.0000 0.26753  0.73132  0.44714  Biso   1.000  C
  C4       1.0000 0.54220  0.16295  0.12286  Biso   1.000  C
  C5       1.0000 0.93299  0.07781  0.04776  Biso   1.000  C
  C6       1.0000 0.11716  0.72229  0.16512  Biso   1.000  C
  C7       1.0000 0.21175  0.36849  0.96814  Biso   1.000  C
