# generated using pymatgen
data_C
_symmetry_space_group_name_H-M   'P 1'
_cell_length_a   4.38110362
_cell_length_b   3.49451285
_cell_length_c   5.69960583
_cell_angle_alpha   90.17139736
_cell_angle_beta   89.54477700
_cell_angle_gamma   58.95188970
_symmetry_Int_Tables_number   1
_chemical_formula_structural   C
_chemical_formula_sum   C9
_cell_volume   74.75369803
_cell_formula_units_Z   9
loop_
 _symmetry_equiv_pos_site_id
 _symmetry_equiv_pos_as_xyz
  1  'x, y, z'
loop_
 _atom_site_type_symbol
 _atom_site_label
 _atom_site_symmetry_multiplicity
 _atom_site_fract_x
 _atom_site_fract_y
 _atom_site_fract_z
 _atom_site_occupancy
  C  C1  1  0.764310  0.731575  0.885679  1
  C  C2  1  0.118046  0.360632  0.883442  1
  C  C3  1  0.749360  0.651089  0.329595  1
  C  C4  1  0.604173  0.855359  0.112251  1
  C  C5  1  0.119976  0.454771  0.329845  1
  C  C6  1  0.272944  0.242615  0.113110  1
  C  C7  1  0.515409  0.682068  0.516570  1
  C  C8  1  0.347928  0.430288  0.516649  1
  C  C9  1  0.430383  1.056678  0.692855  1
