data_image0
_cell_length_a       4.54196
_cell_length_b       3.34724
_cell_length_c       5.76758
_cell_angle_alpha    90.0008
_cell_angle_beta     90.0012
_cell_angle_gamma    56.403

_symmetry_space_group_name_H-M    "P 1"
_symmetry_int_tables_number       1

loop_
  _symmetry_equiv_pos_as_xyz
  'x, y, z'

loop_
  _atom_site_label
  _atom_site_occupancy
  _atom_site_fract_x
  _atom_site_fract_y
  _atom_site_fract_z
  _atom_site_thermal_displace_type
  _atom_site_B_iso_or_equiv
  _atom_site_type_symbol
  C1       1.0000 0.75693  0.75667  0.88104  Biso   1.000  C
  C2       1.0000 0.11473  0.34670  0.88104  Biso   1.000  C
  C3       1.0000 0.74993  0.66505  0.32888  Biso   1.000  C
  C4       1.0000 0.61204  0.85511  0.10517  Biso   1.000  C
  C5       1.0000 0.12175  0.43827  0.32888  Biso   1.000  C
  C6       1.0000 0.25963  0.24823  0.10517  Biso   1.000  C
  C7       1.0000 0.50988  0.68525  0.51757  Biso   1.000  C
  C8       1.0000 0.36179  0.41810  0.51757  Biso   1.000  C
  C9       1.0000 0.43583  0.05169  0.71468  Biso   1.000  C
