# generated using pymatgen
data_C
_symmetry_space_group_name_H-M   'P 1'
_cell_length_a   2.59720216
_cell_length_b   2.51021938
_cell_length_c   11.63734895
_cell_angle_alpha   87.32642407
_cell_angle_beta   90.00000000
_cell_angle_gamma   58.84696264
_symmetry_Int_Tables_number   1
_chemical_formula_structural   C
_chemical_formula_sum   C11
_cell_volume   64.83236844
_cell_formula_units_Z   11
loop_
 _symmetry_equiv_pos_site_id
 _symmetry_equiv_pos_as_xyz
  1  'x, y, z'
loop_
 _atom_site_type_symbol
 _atom_site_label
 _atom_site_symmetry_multiplicity
 _atom_site_fract_x
 _atom_site_fract_y
 _atom_site_fract_z
 _atom_site_occupancy
  C  C1  1  0.481647  0.080228  0.115616  1
  C  C2  1  0.503705  0.037322  0.244598  1
  C  C3  1  -0.042919  0.129359  0.950203  1
  C  C4  1  -0.063768  0.172265  0.821219  1
  C  C5  1  0.469026  0.604793  0.032909  1
  C  C6  1  0.572157  0.900564  0.643808  1
  C  C7  1  0.594866  0.855176  0.776164  1
  C  C8  1  0.867929  0.309020  0.422009  1
  C  C9  1  0.845249  0.354411  0.289654  1
  C  C10  1  0.231470  0.581938  0.599144  1
  C  C11  1  0.208615  0.627649  0.466674  1
