# generated using pymatgen
data_C
_symmetry_space_group_name_H-M   'P 1'
_cell_length_a   3.59480421
_cell_length_b   3.56436797
_cell_length_c   7.32085784
_cell_angle_alpha   101.68115928
_cell_angle_beta   95.55218848
_cell_angle_gamma   108.59987898
_symmetry_Int_Tables_number   1
_chemical_formula_structural   C
_chemical_formula_sum   C10
_cell_volume   85.73761131
_cell_formula_units_Z   10
loop_
 _symmetry_equiv_pos_site_id
 _symmetry_equiv_pos_as_xyz
  1  'x, y, z'
loop_
 _atom_site_type_symbol
 _atom_site_label
 _atom_site_symmetry_multiplicity
 _atom_site_fract_x
 _atom_site_fract_y
 _atom_site_fract_z
 _atom_site_occupancy
  C  C1  1  0.523867  0.845256  0.545967  1
  C  C2  1  0.890895  0.155004  0.554687  1
  C  C3  1  0.572040  0.512473  0.211518  1
  C  C4  1  0.432077  0.287255  0.024136  1
  C  C5  1  0.319081  0.162845  0.828608  1
  C  C6  1  -0.012455  0.744149  0.281485  1
  C  C7  1  0.056235  0.149851  0.384870  1
  C  C8  1  0.360341  0.804250  0.716570  1
  C  C9  1  0.165313  0.393951  0.723328  1
  C  C10  1  0.285564  0.554024  0.348645  1
