# generated using pymatgen
data_C
_symmetry_space_group_name_H-M   'P 1'
_cell_length_a   3.61941134
_cell_length_b   4.54939465
_cell_length_c   4.82408608
_cell_angle_alpha   90.00000000
_cell_angle_beta   84.40735541
_cell_angle_gamma   90.00000000
_symmetry_Int_Tables_number   1
_chemical_formula_structural   C
_chemical_formula_sum   C10
_cell_volume   79.05591898
_cell_formula_units_Z   10
loop_
 _symmetry_equiv_pos_site_id
 _symmetry_equiv_pos_as_xyz
  1  'x, y, z'
loop_
 _atom_site_type_symbol
 _atom_site_label
 _atom_site_symmetry_multiplicity
 _atom_site_fract_x
 _atom_site_fract_y
 _atom_site_fract_z
 _atom_site_occupancy
  C  C1  1  0.589505  0.672540  0.419791  1
  C  C2  1  0.589505  0.358377  0.419791  1
  C  C3  1  0.678755  0.177004  0.187023  1
  C  C4  1  0.678755  0.853914  0.187023  1
  C  C5  1  0.501325  0.754898  0.705181  1
  C  C6  1  0.501325  0.276019  0.705181  1
  C  C7  1  0.145753  0.858130  0.804147  1
  C  C8  1  0.145753  0.172788  0.804147  1
  C  C9  1  0.795515  0.337128  0.908565  1
  C  C10  1  0.795515  0.693789  0.908565  1
