data_image0
_cell_length_a       3.67196
_cell_length_b       4.40799
_cell_length_c       4.84278
_cell_angle_alpha    89.9997
_cell_angle_beta     88.4959
_cell_angle_gamma    90.0002

_symmetry_space_group_name_H-M    "P 1"
_symmetry_int_tables_number       1

loop_
  _symmetry_equiv_pos_as_xyz
  'x, y, z'

loop_
  _atom_site_label
  _atom_site_occupancy
  _atom_site_fract_x
  _atom_site_fract_y
  _atom_site_fract_z
  _atom_site_thermal_displace_type
  _atom_site_B_iso_or_equiv
  _atom_site_type_symbol
  C1       1.0000 0.59104  0.67359  0.40837  Biso   1.000  C
  C2       1.0000 0.59103  0.35733  0.40837  Biso   1.000  C
  C3       1.0000 0.69952  0.17345  0.18630  Biso   1.000  C
  C4       1.0000 0.69952  0.85747  0.18630  Biso   1.000  C
  C5       1.0000 0.47080  0.69271  0.71051  Biso   1.000  C
  C6       1.0000 0.47079  0.33821  0.71050  Biso   1.000  C
  C7       1.0000 0.13928  0.86247  0.80037  Biso   1.000  C
  C8       1.0000 0.13928  0.16844  0.80037  Biso   1.000  C
  C9       1.0000 0.81023  0.33470  0.91917  Biso   1.000  C
  C10      1.0000 0.81022  0.69621  0.91916  Biso   1.000  C
