# generated using pymatgen
data_C
_symmetry_space_group_name_H-M   'P 1'
_cell_length_a   2.49768017
_cell_length_b   4.91355638
_cell_length_c   6.76913706
_cell_angle_alpha   66.74446976
_cell_angle_beta   91.14390495
_cell_angle_gamma   84.77327119
_symmetry_Int_Tables_number   1
_chemical_formula_structural   C
_chemical_formula_sum   C9
_cell_volume   75.86514876
_cell_formula_units_Z   9
loop_
 _symmetry_equiv_pos_site_id
 _symmetry_equiv_pos_as_xyz
  1  'x, y, z'
loop_
 _atom_site_type_symbol
 _atom_site_label
 _atom_site_symmetry_multiplicity
 _atom_site_fract_x
 _atom_site_fract_y
 _atom_site_fract_z
 _atom_site_occupancy
  C  C1  1  0.178864  0.500479  0.545643  1
  C  C2  1  0.152971  0.789999  0.536873  1
  C  C3  1  0.701683  0.350075  0.595383  1
  C  C4  1  0.644714  0.889099  0.583562  1
  C  C5  1  0.690631  0.045350  0.715970  1
  C  C6  1  0.694710  0.907938  -0.052345  1
  C  C7  1  0.371943  0.411212  0.050812  1
  C  C8  1  0.831116  0.577399  0.036196  1
  C  C9  1  0.503192  0.115947  0.045152  1
