# generated using pymatgen
data_C
_symmetry_space_group_name_H-M   'P 1'
_cell_length_a   4.14058143
_cell_length_b   4.14057357
_cell_length_c   5.15261062
_cell_angle_alpha   76.18211014
_cell_angle_beta   76.18571465
_cell_angle_gamma   64.28989005
_symmetry_Int_Tables_number   1
_chemical_formula_structural   C
_chemical_formula_sum   C8
_cell_volume   76.36157214
_cell_formula_units_Z   8
loop_
 _symmetry_equiv_pos_site_id
 _symmetry_equiv_pos_as_xyz
  1  'x, y, z'
loop_
 _atom_site_type_symbol
 _atom_site_label
 _atom_site_symmetry_multiplicity
 _atom_site_fract_x
 _atom_site_fract_y
 _atom_site_fract_z
 _atom_site_occupancy
  C  C1  1  0.683914  0.113360  0.077123  1
  C  C2  1  0.886672  0.809553  0.956173  1
  C  C3  1  0.380076  0.316039  0.956167  1
  C  C4  1  0.022912  0.452354  0.090853  1
  C  C5  1  0.820460  0.249955  0.232618  1
  C  C6  1  0.754145  0.183631  0.518746  1
  C  C7  1  0.418554  0.442723  0.666218  1
  C  C8  1  0.013287  0.848044  0.666226  1
