# generated using pymatgen
data_C
_symmetry_space_group_name_H-M   'P 1'
_cell_length_a   2.57615933
_cell_length_b   4.24399347
_cell_length_c   4.48556179
_cell_angle_alpha   91.11603880
_cell_angle_beta   91.91358341
_cell_angle_gamma   84.73139913
_symmetry_Int_Tables_number   1
_chemical_formula_structural   C
_chemical_formula_sum   C8
_cell_volume   48.80049717
_cell_formula_units_Z   8
loop_
 _symmetry_equiv_pos_site_id
 _symmetry_equiv_pos_as_xyz
  1  'x, y, z'
loop_
 _atom_site_type_symbol
 _atom_site_label
 _atom_site_symmetry_multiplicity
 _atom_site_fract_x
 _atom_site_fract_y
 _atom_site_fract_z
 _atom_site_occupancy
  C  C1  1  0.247233  0.047024  0.656877  1
  C  C2  1  0.800693  0.203703  0.514382  1
  C  C3  1  0.757295  0.556118  0.511310  1
  C  C4  1  0.327372  0.215940  0.000123  1
  C  C5  1  0.563546  0.036416  0.205076  1
  C  C6  1  0.236886  0.576720  0.007629  1
  C  C7  1  0.240888  0.688876  0.673304  1
  C  C8  1  0.717572  0.686460  0.179035  1
