# generated using pymatgen
data_C
_symmetry_space_group_name_H-M   'P 1'
_cell_length_a   2.56822659
_cell_length_b   3.72457633
_cell_length_c   4.59956155
_cell_angle_alpha   95.81339389
_cell_angle_beta   73.78862942
_cell_angle_gamma   89.99999999
_symmetry_Int_Tables_number   1
_chemical_formula_structural   C
_chemical_formula_sum   C5
_cell_volume   42.01225650
_cell_formula_units_Z   5
loop_
 _symmetry_equiv_pos_site_id
 _symmetry_equiv_pos_as_xyz
  1  'x, y, z'
loop_
 _atom_site_type_symbol
 _atom_site_label
 _atom_site_symmetry_multiplicity
 _atom_site_fract_x
 _atom_site_fract_y
 _atom_site_fract_z
 _atom_site_occupancy
  C  C1  1  0.195188  -0.006922  0.370154  1
  C  C2  1  0.247502  0.625804  0.265526  1
  C  C3  1  0.299816  0.258531  0.160898  1
  C  C4  1  0.459453  0.151242  0.841624  1
  C  C5  1  0.035550  0.100367  0.689430  1
