data_image0
_cell_length_a       3.37223
_cell_length_b       3.37223
_cell_length_c       4.90496
_cell_angle_alpha    77.5365
_cell_angle_beta     77.5365
_cell_angle_gamma    78.8899

_symmetry_space_group_name_H-M    "P 1"
_symmetry_int_tables_number       1

loop_
  _symmetry_equiv_pos_as_xyz
  'x, y, z'

loop_
  _atom_site_label
  _atom_site_occupancy
  _atom_site_fract_x
  _atom_site_fract_y
  _atom_site_fract_z
  _atom_site_thermal_displace_type
  _atom_site_B_iso_or_equiv
  _atom_site_type_symbol
  C1       1.0000 0.76781  0.45496  0.12120  Biso   1.000  C
  C2       1.0000 0.44291  0.77985  0.12120  Biso   1.000  C
  C3       1.0000 0.88273  0.21967  0.37767  Biso   1.000  C
  C4       1.0000 0.20763  0.89477  0.37767  Biso   1.000  C
  C5       1.0000 0.98628  0.36201  0.83615  Biso   1.000  C
  C6       1.0000 0.66426  0.31262  0.66272  Biso   1.000  C
  C7       1.0000 0.30058  0.67630  0.66272  Biso   1.000  C
  C8       1.0000 0.34996  0.99832  0.83615  Biso   1.000  C
