# generated using pymatgen
data_C
_symmetry_space_group_name_H-M   'P 1'
_cell_length_a   3.43166085
_cell_length_b   3.43166085
_cell_length_c   4.88287586
_cell_angle_alpha   76.55417758
_cell_angle_beta   76.55417759
_cell_angle_gamma   78.91743632
_symmetry_Int_Tables_number   1
_chemical_formula_structural   C
_chemical_formula_sum   C8
_cell_volume   53.80988816
_cell_formula_units_Z   8
loop_
 _symmetry_equiv_pos_site_id
 _symmetry_equiv_pos_as_xyz
  1  'x, y, z'
loop_
 _atom_site_type_symbol
 _atom_site_label
 _atom_site_symmetry_multiplicity
 _atom_site_fract_x
 _atom_site_fract_y
 _atom_site_fract_z
 _atom_site_occupancy
  C  C1  1  0.766675  0.452872  0.122184  1
  C  C2  1  0.440829  0.778718  0.122184  1
  C  C3  1  0.883863  0.221754  0.376692  1
  C  C4  1  0.209711  0.895907  0.376692  1
  C  C5  1  0.971602  0.357538  0.837615  1
  C  C6  1  0.678937  0.317090  0.661260  1
  C  C7  1  0.305047  0.690978  0.661260  1
  C  C8  1  0.345493  -0.016353  0.837615  1
