# generated using pymatgen
data_C
_symmetry_space_group_name_H-M   'P 1'
_cell_length_a   3.56374136
_cell_length_b   3.65537425
_cell_length_c   7.79911380
_cell_angle_alpha   100.22965614
_cell_angle_beta   101.48972467
_cell_angle_gamma   104.16395706
_symmetry_Int_Tables_number   1
_chemical_formula_structural   C
_chemical_formula_sum   C12
_cell_volume   93.75607710
_cell_formula_units_Z   12
loop_
 _symmetry_equiv_pos_site_id
 _symmetry_equiv_pos_as_xyz
  1  'x, y, z'
loop_
 _atom_site_type_symbol
 _atom_site_label
 _atom_site_symmetry_multiplicity
 _atom_site_fract_x
 _atom_site_fract_y
 _atom_site_fract_z
 _atom_site_occupancy
  C  C1  1  0.195207  0.325690  0.040453  1
  C  C2  1  0.349000  0.503344  0.223275  1
  C  C3  1  0.847895  0.360921  0.920662  1
  C  C4  1  0.561780  0.963630  0.837215  1
  C  C5  1  0.912283  0.600722  0.649112  1
  C  C6  1  0.291409  0.865907  0.648452  1
  C  C7  1  0.661452  0.326497  0.489008  1
  C  C8  1  0.358001  -0.022696  0.488287  1
  C  C9  1  0.118540  0.674394  0.327607  1
  C  C10  1  0.254359  -0.023069  0.946298  1
  C  C11  1  0.711266  0.468364  0.328546  1
  C  C12  1  0.842998  0.690244  0.836839  1
