# generated using pymatgen
data_C
_symmetry_space_group_name_H-M   'P 1'
_cell_length_a   4.59287711
_cell_length_b   5.08564113
_cell_length_c   5.08564113
_cell_angle_alpha   90.00000000
_cell_angle_beta   106.07063402
_cell_angle_gamma   106.07063402
_symmetry_Int_Tables_number   1
_chemical_formula_structural   C
_chemical_formula_sum   C16
_cell_volume   109.30776566
_cell_formula_units_Z   16
loop_
 _symmetry_equiv_pos_site_id
 _symmetry_equiv_pos_as_xyz
  1  'x, y, z'
loop_
 _atom_site_type_symbol
 _atom_site_label
 _atom_site_symmetry_multiplicity
 _atom_site_fract_x
 _atom_site_fract_y
 _atom_site_fract_z
 _atom_site_occupancy
  C  C1  1  0.020274  0.885865  0.375163  1
  C  C2  1  0.857611  0.845198  0.084498  1
  C  C3  1  0.020274  0.885865  0.875163  1
  C  C4  1  0.857611  0.845199  0.584498  1
  C  C5  1  0.357613  0.970199  0.959497  1
  C  C6  1  0.520275  0.760864  0.000163  1
  C  C7  1  0.357612  0.470199  0.959497  1
  C  C8  1  0.520275  0.260864  0.000163  1
  C  C9  1  0.520275  0.760864  0.500164  1
  C  C10  1  0.357612  0.470199  0.459497  1
  C  C11  1  0.357612  0.970199  0.459497  1
  C  C12  1  0.520275  0.260864  0.500164  1
  C  C13  1  0.857611  0.345198  0.084498  1
  C  C14  1  0.020275  0.385865  0.375163  1
  C  C15  1  0.020275  0.385865  0.875163  1
  C  C16  1  0.857611  0.345199  0.584498  1
