# generated using pymatgen
data_C
_symmetry_space_group_name_H-M   'P 1'
_cell_length_a   3.62237948
_cell_length_b   4.62711962
_cell_length_c   4.69878029
_cell_angle_alpha   111.30050952
_cell_angle_beta   96.37838109
_cell_angle_gamma   115.69939916
_symmetry_Int_Tables_number   1
_chemical_formula_structural   C
_chemical_formula_sum   C8
_cell_volume   62.64275829
_cell_formula_units_Z   8
loop_
 _symmetry_equiv_pos_site_id
 _symmetry_equiv_pos_as_xyz
  1  'x, y, z'
loop_
 _atom_site_type_symbol
 _atom_site_label
 _atom_site_symmetry_multiplicity
 _atom_site_fract_x
 _atom_site_fract_y
 _atom_site_fract_z
 _atom_site_occupancy
  C  C1  1  0.130429  0.866122  0.037964  1
  C  C2  1  0.877187  0.979143  0.928258  1
  C  C3  1  0.402751  0.518906  0.383661  1
  C  C4  1  0.643189  0.880652  0.610141  1
  C  C5  1  0.952304  0.344691  0.170069  1
  C  C6  1  0.939253  0.503016  0.938481  1
  C  C7  1  0.582823  0.253664  0.317905  1
  C  C8  1  0.705496  0.212788  0.611691  1
