data_image0
_cell_length_a       3.19943
_cell_length_b       4.69801
_cell_length_c       5.08311
_cell_angle_alpha    120.65
_cell_angle_beta     94.086
_cell_angle_gamma    108.256

_symmetry_space_group_name_H-M    "P 1"
_symmetry_int_tables_number       1

loop_
  _symmetry_equiv_pos_as_xyz
  'x, y, z'

loop_
  _atom_site_label
  _atom_site_occupancy
  _atom_site_fract_x
  _atom_site_fract_y
  _atom_site_fract_z
  _atom_site_thermal_displace_type
  _atom_site_B_iso_or_equiv
  _atom_site_type_symbol
  C1       1.0000 0.09526  0.87791  0.06756  Biso   1.000  C
  C2       1.0000 0.93626  0.00870  0.90669  Biso   1.000  C
  C3       1.0000 0.41210  0.51199  0.38466  Biso   1.000  C
  C4       1.0000 0.64626  0.87776  0.61488  Biso   1.000  C
  C5       1.0000 0.12210  0.38105  0.09285  Biso   1.000  C
  C6       1.0000 0.96310  0.51184  0.93198  Biso   1.000  C
  C7       1.0000 0.40358  0.19477  0.38045  Biso   1.000  C
  C8       1.0000 0.65477  0.19497  0.61909  Biso   1.000  C
