# generated using pymatgen
data_C
_symmetry_space_group_name_H-M   'P 1'
_cell_length_a   3.48208531
_cell_length_b   4.65675982
_cell_length_c   4.65675982
_cell_angle_alpha   73.01087188
_cell_angle_beta   76.14145495
_cell_angle_gamma   76.14145495
_symmetry_Int_Tables_number   1
_chemical_formula_structural   C
_chemical_formula_sum   C9
_cell_volume   68.93435347
_cell_formula_units_Z   9
loop_
 _symmetry_equiv_pos_site_id
 _symmetry_equiv_pos_as_xyz
  1  'x, y, z'
loop_
 _atom_site_type_symbol
 _atom_site_label
 _atom_site_symmetry_multiplicity
 _atom_site_fract_x
 _atom_site_fract_y
 _atom_site_fract_z
 _atom_site_occupancy
  C  C1  1  0.302874  0.546049  0.431567  1
  C  C2  1  0.715708  0.469328  0.354845  1
  C  C3  1  1.009292  0.688397  0.212497  1
  C  C4  1  0.168678  0.472465  0.752792  1
  C  C5  1  0.316079  0.156323  0.906805  1
  C  C6  1  0.849904  0.148102  0.428429  1
  C  C7  1  0.702504  -0.005911  0.744570  1
  C  C8  1  1.046699  0.018727  0.177805  1
  C  C9  1  0.971885  0.723088  0.882167  1
