# generated using pymatgen
data_C
_symmetry_space_group_name_H-M   'P 1'
_cell_length_a   2.53539369
_cell_length_b   2.59954836
_cell_length_c   4.16703088
_cell_angle_alpha   71.82511140
_cell_angle_beta   90.00000000
_cell_angle_gamma   90.00000000
_symmetry_Int_Tables_number   1
_chemical_formula_structural   C
_chemical_formula_sum   C4
_cell_volume   26.09416408
_cell_formula_units_Z   4
loop_
 _symmetry_equiv_pos_site_id
 _symmetry_equiv_pos_as_xyz
  1  'x, y, z'
loop_
 _atom_site_type_symbol
 _atom_site_label
 _atom_site_symmetry_multiplicity
 _atom_site_fract_x
 _atom_site_fract_y
 _atom_site_fract_z
 _atom_site_occupancy
  C  C1  1  0.051230  0.219505  0.204883  1
  C  C2  1  0.051230  0.041312  0.561269  1
  C  C3  1  0.551232  0.937142  0.769605  1
  C  C4  1  0.551232  0.323674  -0.003454  1
