data_image0
_cell_length_a       2.50942
_cell_length_b       2.68592
_cell_length_c       4.13267
_cell_angle_alpha    71.0367
_cell_angle_beta     90
_cell_angle_gamma    90

_symmetry_space_group_name_H-M    "P 1"
_symmetry_int_tables_number       1

loop_
  _symmetry_equiv_pos_as_xyz
  'x, y, z'

loop_
  _atom_site_label
  _atom_site_occupancy
  _atom_site_fract_x
  _atom_site_fract_y
  _atom_site_fract_z
  _atom_site_thermal_displace_type
  _atom_site_B_iso_or_equiv
  _atom_site_type_symbol
  C1       1.0000 0.05123  0.21637  0.21115  Biso   1.000  C
  C2       1.0000 0.05123  0.04445  0.55500  Biso   1.000  C
  C3       1.0000 0.55123  0.94107  0.76176  Biso   1.000  C
  C4       1.0000 0.55123  0.31975  0.00439  Biso   1.000  C
