# generated using pymatgen
data_C
_symmetry_space_group_name_H-M   'P 1'
_cell_length_a   3.48827612
_cell_length_b   3.78205777
_cell_length_c   4.53692141
_cell_angle_alpha   72.30701842
_cell_angle_beta   68.63189760
_cell_angle_gamma   72.92192003
_symmetry_Int_Tables_number   1
_chemical_formula_structural   C
_chemical_formula_sum   C7
_cell_volume   51.96269867
_cell_formula_units_Z   7
loop_
 _symmetry_equiv_pos_site_id
 _symmetry_equiv_pos_as_xyz
  1  'x, y, z'
loop_
 _atom_site_type_symbol
 _atom_site_label
 _atom_site_symmetry_multiplicity
 _atom_site_fract_x
 _atom_site_fract_y
 _atom_site_fract_z
 _atom_site_occupancy
  C  C1  1  0.653425  0.656111  0.122545  1
  C  C2  1  -0.036093  0.559001  0.841426  1
  C  C3  1  -0.148121  0.712803  0.553718  1
  C  C4  1  0.350304  0.288512  0.808616  1
  C  C5  1  0.352412  1.002323  0.090821  1
  C  C6  1  -0.017711  0.050044  0.365726  1
  C  C7  1  0.715940  0.423886  0.451213  1
