data_image0
_cell_length_a       3.62656
_cell_length_b       3.73718
_cell_length_c       4.81705
_cell_angle_alpha    68.5371
_cell_angle_beta     63.1229
_cell_angle_gamma    71.9843

_symmetry_space_group_name_H-M    "P 1"
_symmetry_int_tables_number       1

loop_
  _symmetry_equiv_pos_as_xyz
  'x, y, z'

loop_
  _atom_site_label
  _atom_site_occupancy
  _atom_site_fract_x
  _atom_site_fract_y
  _atom_site_fract_z
  _atom_site_thermal_displace_type
  _atom_site_B_iso_or_equiv
  _atom_site_type_symbol
  C1       1.0000 0.65261  0.65846  0.13173  Biso   1.000  C
  C2       1.0000 0.94050  0.55240  0.84973  Biso   1.000  C
  C3       1.0000 0.85774  0.69356  0.55741  Biso   1.000  C
  C4       1.0000 0.34500  0.30428  0.79016  Biso   1.000  C
  C5       1.0000 0.35443  0.01249  0.08062  Biso   1.000  C
  C6       1.0000 0.99475  0.04822  0.36777  Biso   1.000  C
  C7       1.0000 0.72513  0.42327  0.45663  Biso   1.000  C
