# generated using pymatgen
data_C
_symmetry_space_group_name_H-M   'P 1'
_cell_length_a   4.19892769
_cell_length_b   4.92558149
_cell_length_c   5.94814987
_cell_angle_alpha   102.06163406
_cell_angle_beta   104.81514496
_cell_angle_gamma   77.63655205
_symmetry_Int_Tables_number   1
_chemical_formula_structural   C
_chemical_formula_sum   C15
_cell_volume   114.61320512
_cell_formula_units_Z   15
loop_
 _symmetry_equiv_pos_site_id
 _symmetry_equiv_pos_as_xyz
  1  'x, y, z'
loop_
 _atom_site_type_symbol
 _atom_site_label
 _atom_site_symmetry_multiplicity
 _atom_site_fract_x
 _atom_site_fract_y
 _atom_site_fract_z
 _atom_site_occupancy
  C  C1  1  0.078128  0.623947  0.787041  1
  C  C2  1  0.144741  0.816348  0.638744  1
  C  C3  1  0.135954  0.112950  0.770481  1
  C  C4  1  0.456861  0.702718  0.550439  1
  C  C5  1  0.567465  0.897960  0.451800  1
  C  C6  1  0.935718  0.364798  0.682322  1
  C  C7  1  0.595367  0.407766  0.549285  1
  C  C8  1  0.508510  0.400341  0.068388  1
  C  C9  1  0.855400  0.393687  0.156334  1
  C  C10  1  0.332391  0.159808  1.005046  1
  C  C11  1  0.165663  0.193833  0.198436  1
  C  C12  1  -0.026107  0.663378  0.192122  1
  C  C13  1  0.215219  0.637666  0.039224  1
  C  C14  1  0.410389  0.178262  0.419214  1
  C  C15  1  0.892268  0.820273  0.407968  1
