# generated using pymatgen
data_C
_symmetry_space_group_name_H-M   'P 1'
_cell_length_a   3.60506410
_cell_length_b   3.52023734
_cell_length_c   5.21652426
_cell_angle_alpha   96.22812588
_cell_angle_beta   111.95201216
_cell_angle_gamma   109.88663239
_symmetry_Int_Tables_number   1
_chemical_formula_structural   C
_chemical_formula_sum   C7
_cell_volume   55.59256575
_cell_formula_units_Z   7
loop_
 _symmetry_equiv_pos_site_id
 _symmetry_equiv_pos_as_xyz
  1  'x, y, z'
loop_
 _atom_site_type_symbol
 _atom_site_label
 _atom_site_symmetry_multiplicity
 _atom_site_fract_x
 _atom_site_fract_y
 _atom_site_fract_z
 _atom_site_occupancy
  C  C1  1  0.448923  0.550148  0.013688  1
  C  C2  1  0.175374  0.365683  0.718068  1
  C  C3  1  0.068096  0.616153  0.501813  1
  C  C4  1  0.661355  0.332942  0.197918  1
  C  C5  1  0.912004  0.925775  0.611593  1
  C  C6  1  0.443215  0.900210  0.175096  1
  C  C7  1  0.454712  0.827323  0.445119  1
