data_image0
_cell_length_a       3.84079
_cell_length_b       3.76916
_cell_length_c       5.33435
_cell_angle_alpha    88.7908
_cell_angle_beta     118.916
_cell_angle_gamma    120.461

_symmetry_space_group_name_H-M    "P 1"
_symmetry_int_tables_number       1

loop_
  _symmetry_equiv_pos_as_xyz
  'x, y, z'

loop_
  _atom_site_label
  _atom_site_occupancy
  _atom_site_fract_x
  _atom_site_fract_y
  _atom_site_fract_z
  _atom_site_thermal_displace_type
  _atom_site_B_iso_or_equiv
  _atom_site_type_symbol
  C1       1.0000 0.38459  0.49089  0.02362  Biso   1.000  C
  C2       1.0000 0.04399  0.32570  0.69535  Biso   1.000  C
  C3       1.0000 0.07388  0.64112  0.50810  Biso   1.000  C
  C4       1.0000 0.64271  0.32906  0.19115  Biso   1.000  C
  C5       1.0000 0.93619  0.93735  0.52729  Biso   1.000  C
  C6       1.0000 0.56161  0.90397  0.21756  Biso   1.000  C
  C7       1.0000 0.52070  0.89014  0.50023  Biso   1.000  C
