# generated using pymatgen
data_C
_symmetry_space_group_name_H-M   'P 1'
_cell_length_a   2.54177774
_cell_length_b   3.54231644
_cell_length_c   6.94211939
_cell_angle_alpha   86.23407991
_cell_angle_beta   79.45141140
_cell_angle_gamma   68.97511531
_symmetry_Int_Tables_number   1
_chemical_formula_structural   C
_chemical_formula_sum   C8
_cell_volume   57.35799911
_cell_formula_units_Z   8
loop_
 _symmetry_equiv_pos_site_id
 _symmetry_equiv_pos_as_xyz
  1  'x, y, z'
loop_
 _atom_site_type_symbol
 _atom_site_label
 _atom_site_symmetry_multiplicity
 _atom_site_fract_x
 _atom_site_fract_y
 _atom_site_fract_z
 _atom_site_occupancy
  C  C1  1  0.052518  0.115527  0.860713  1
  C  C2  1  0.602163  0.115527  0.761423  1
  C  C3  1  0.745785  0.383549  0.206156  1
  C  C4  1  0.640873  0.383549  0.415980  1
  C  C5  1  0.402076  0.771868  0.505256  1
  C  C6  1  0.596264  0.771868  0.116880  1
  C  C7  1  0.764624  0.008523  0.543505  1
  C  C8  1  -0.002940  0.008523  0.078631  1
