# generated using pymatgen
data_C
_symmetry_space_group_name_H-M   'P 1'
_cell_length_a   3.50915471
_cell_length_b   3.50915471
_cell_length_c   5.44179113
_cell_angle_alpha   90.00000000
_cell_angle_beta   90.00000000
_cell_angle_gamma   90.00000000
_symmetry_Int_Tables_number   1
_chemical_formula_structural   C
_chemical_formula_sum   C8
_cell_volume   67.01112343
_cell_formula_units_Z   8
loop_
 _symmetry_equiv_pos_site_id
 _symmetry_equiv_pos_as_xyz
  1  'x, y, z'
loop_
 _atom_site_type_symbol
 _atom_site_label
 _atom_site_symmetry_multiplicity
 _atom_site_fract_x
 _atom_site_fract_y
 _atom_site_fract_z
 _atom_site_occupancy
  C  C1  1  0.483219  0.089021  0.018763  1
  C  C2  1  0.338369  0.733869  -0.079017  1
  C  C3  1  0.338369  0.733869  0.647767  1
  C  C4  1  -0.016782  0.878716  0.549984  1
  C  C5  1  0.838370  0.233869  0.647767  1
  C  C6  1  0.693523  0.589022  0.549984  1
  C  C7  1  0.193523  0.378718  0.018763  1
  C  C8  1  0.838370  0.233869  -0.079017  1
