# generated using pymatgen
data_C
_symmetry_space_group_name_H-M   'P 1'
_cell_length_a   4.65255704
_cell_length_b   4.67189196
_cell_length_c   7.43707352
_cell_angle_alpha   75.27959877
_cell_angle_beta   62.55132089
_cell_angle_gamma   66.65885713
_symmetry_Int_Tables_number   1
_chemical_formula_structural   C
_chemical_formula_sum   C14
_cell_volume   131.20789546
_cell_formula_units_Z   14
loop_
 _symmetry_equiv_pos_site_id
 _symmetry_equiv_pos_as_xyz
  1  'x, y, z'
loop_
 _atom_site_type_symbol
 _atom_site_label
 _atom_site_symmetry_multiplicity
 _atom_site_fract_x
 _atom_site_fract_y
 _atom_site_fract_z
 _atom_site_occupancy
  C  C1  1  0.556806  0.669177  0.686689  1
  C  C2  1  0.364065  0.746310  0.569755  1
  C  C3  1  0.815582  0.624541  0.749328  1
  C  C4  1  0.163728  0.551592  0.600453  1
  C  C5  1  0.254939  0.341309  0.459088  1
  C  C6  1  0.384694  0.015339  0.423995  1
  C  C7  1  0.566580  0.987846  0.206098  1
  C  C8  1  0.475674  0.926188  0.063302  1
  C  C9  1  0.922295  0.930550  0.125143  1
  C  C10  1  0.141904  0.107809  0.057421  1
  C  C11  1  0.204363  0.496525  0.282686  1
  C  C12  1  0.084047  0.604258  0.133132  1
  C  C13  1  0.999568  0.441844  0.036926  1
  C  C14  1  0.745425  0.650134  0.952600  1
