# generated using pymatgen
data_C
_symmetry_space_group_name_H-M   'P 1'
_cell_length_a   4.19599878
_cell_length_b   3.56380026
_cell_length_c   4.81232600
_cell_angle_alpha   77.63538311
_cell_angle_beta   64.15336931
_cell_angle_gamma   60.58251038
_symmetry_Int_Tables_number   1
_chemical_formula_structural   C
_chemical_formula_sum   C7
_cell_volume   56.41297915
_cell_formula_units_Z   7
loop_
 _symmetry_equiv_pos_site_id
 _symmetry_equiv_pos_as_xyz
  1  'x, y, z'
loop_
 _atom_site_type_symbol
 _atom_site_label
 _atom_site_symmetry_multiplicity
 _atom_site_fract_x
 _atom_site_fract_y
 _atom_site_fract_z
 _atom_site_occupancy
  C  C1  1  0.568779  0.445927  0.552979  1
  C  C2  1  0.367329  0.899840  0.552979  1
  C  C3  1  0.022124  0.047218  0.823582  1
  C  C4  1  0.643383  0.298549  0.823582  1
  C  C5  1  0.350066  0.472187  0.132356  1
  C  C6  1  0.006667  0.873579  0.132356  1
  C  C7  1  0.566391  0.172884  0.356308  1
