data_image0
_cell_length_a       3.33763
_cell_length_b       3.43546
_cell_length_c       4.83155
_cell_angle_alpha    83.0757
_cell_angle_beta     69.7939
_cell_angle_gamma    69.5715

_symmetry_space_group_name_H-M    "P 1"
_symmetry_int_tables_number       1

loop_
  _symmetry_equiv_pos_as_xyz
  'x, y, z'

loop_
  _atom_site_label
  _atom_site_occupancy
  _atom_site_fract_x
  _atom_site_fract_y
  _atom_site_fract_z
  _atom_site_thermal_displace_type
  _atom_site_B_iso_or_equiv
  _atom_site_type_symbol
  C1       1.0000 0.57576  0.46131  0.55815  Biso   1.000  C
  C2       1.0000 0.35518  0.88446  0.55815  Biso   1.000  C
  C3       1.0000 0.02323  0.01569  0.83700  Biso   1.000  C
  C4       1.0000 0.62885  0.33008  0.83700  Biso   1.000  C
  C5       1.0000 0.35500  0.48207  0.12338  Biso   1.000  C
  C6       1.0000 0.01071  0.86370  0.12338  Biso   1.000  C
  C7       1.0000 0.57600  0.17288  0.33709  Biso   1.000  C
