# generated using pymatgen
data_C
_symmetry_space_group_name_H-M   'P 1'
_cell_length_a   2.57453476
_cell_length_b   3.54511947
_cell_length_c   5.09690595
_cell_angle_alpha   111.08901050
_cell_angle_beta   90.00000000
_cell_angle_gamma   111.29129862
_symmetry_Int_Tables_number   1
_chemical_formula_structural   C
_chemical_formula_sum   C6
_cell_volume   39.98205758
_cell_formula_units_Z   6
loop_
 _symmetry_equiv_pos_site_id
 _symmetry_equiv_pos_as_xyz
  1  'x, y, z'
loop_
 _atom_site_type_symbol
 _atom_site_label
 _atom_site_symmetry_multiplicity
 _atom_site_fract_x
 _atom_site_fract_y
 _atom_site_fract_z
 _atom_site_occupancy
  C  C1  1  0.397426  0.678249  0.025215  1
  C  C2  1  0.284263  0.451925  0.722174  1
  C  C3  1  0.051561  -0.013480  0.596912  1
  C  C4  1  0.630129  0.143652  0.150478  1
  C  C5  1  0.417445  0.718288  0.535946  1
  C  C6  1  0.264243  0.411885  0.211444  1
