data_image0
_cell_length_a       3.41949
_cell_length_b       4.28505
_cell_length_c       6.04141
_cell_angle_alpha    89.9984
_cell_angle_beta     99.1555
_cell_angle_gamma    128.799

_symmetry_space_group_name_H-M    "P 1"
_symmetry_int_tables_number       1

loop_
  _symmetry_equiv_pos_as_xyz
  'x, y, z'

loop_
  _atom_site_label
  _atom_site_occupancy
  _atom_site_fract_x
  _atom_site_fract_y
  _atom_site_fract_z
  _atom_site_thermal_displace_type
  _atom_site_B_iso_or_equiv
  _atom_site_type_symbol
  C1       1.0000 0.26413  0.31255  0.79953  Biso   1.000  C
  C2       1.0000 0.26413  0.94931  0.79954  Biso   1.000  C
  C3       1.0000 0.79012  0.71231  0.93611  Biso   1.000  C
  C4       1.0000 0.79012  0.07555  0.93611  Biso   1.000  C
  C5       1.0000 0.13519  0.40415  0.57302  Biso   1.000  C
  C6       1.0000 0.02714  0.17957  0.36782  Biso   1.000  C
  C7       1.0000 0.02711  0.84529  0.36782  Biso   1.000  C
  C8       1.0000 0.91906  0.29609  0.16263  Biso   1.000  C
  C9       1.0000 0.91906  0.62071  0.16263  Biso   1.000  C
  C10      1.0000 0.13519  0.72877  0.57302  Biso   1.000  C
