# generated using pymatgen
data_C
_symmetry_space_group_name_H-M   'P 1'
_cell_length_a   2.51188791
_cell_length_b   4.45124966
_cell_length_c   4.49508555
_cell_angle_alpha   98.60896612
_cell_angle_beta   97.13629204
_cell_angle_gamma   84.59777765
_symmetry_Int_Tables_number   1
_chemical_formula_structural   C
_chemical_formula_sum   C8
_cell_volume   49.16207702
_cell_formula_units_Z   8
loop_
 _symmetry_equiv_pos_site_id
 _symmetry_equiv_pos_as_xyz
  1  'x, y, z'
loop_
 _atom_site_type_symbol
 _atom_site_label
 _atom_site_symmetry_multiplicity
 _atom_site_fract_x
 _atom_site_fract_y
 _atom_site_fract_z
 _atom_site_occupancy
  C  C1  1  0.020333  0.399952  0.456279  1
  C  C2  1  0.042069  0.611203  0.683688  1
  C  C3  1  0.868696  0.947309  0.650271  1
  C  C4  1  0.320179  0.045298  0.485390  1
  C  C5  1  0.244715  0.582883  0.024177  1
  C  C6  1  0.783965  0.419655  0.114854  1
  C  C7  1  0.315065  0.930377  0.148261  1
  C  C8  1  0.778930  0.073128  -0.002236  1
