# generated using pymatgen
data_C
_symmetry_space_group_name_H-M   'P 1'
_cell_length_a   3.14755939
_cell_length_b   4.34481281
_cell_length_c   5.43113690
_cell_angle_alpha   90.00000000
_cell_angle_beta   92.93306134
_cell_angle_gamma   90.00000000
_symmetry_Int_Tables_number   1
_chemical_formula_structural   C
_chemical_formula_sum   C8
_cell_volume   74.17651973
_cell_formula_units_Z   8
loop_
 _symmetry_equiv_pos_site_id
 _symmetry_equiv_pos_as_xyz
  1  'x, y, z'
loop_
 _atom_site_type_symbol
 _atom_site_label
 _atom_site_symmetry_multiplicity
 _atom_site_fract_x
 _atom_site_fract_y
 _atom_site_fract_z
 _atom_site_occupancy
  C  C1  1  0.538840  0.852170  0.743887  1
  C  C2  1  0.538840  0.532978  0.743887  1
  C  C3  1  0.319587  0.042061  0.561355  1
  C  C4  1  0.871279  0.333828  0.822296  1
  C  C5  1  0.206400  0.333828  0.665478  1
  C  C6  1  0.758093  0.042061  -0.073579  1
  C  C7  1  0.292131  -0.014400  0.307748  1
  C  C8  1  0.785549  -0.014400  0.180027  1
