# generated using pymatgen
data_C
_symmetry_space_group_name_H-M   'P 1'
_cell_length_a   2.49937302
_cell_length_b   4.92704872
_cell_length_c   6.33284261
_cell_angle_alpha   111.02089643
_cell_angle_beta   101.36384448
_cell_angle_gamma   90.00877293
_symmetry_Int_Tables_number   1
_chemical_formula_structural   C
_chemical_formula_sum   C8
_cell_volume   71.15479077
_cell_formula_units_Z   8
loop_
 _symmetry_equiv_pos_site_id
 _symmetry_equiv_pos_as_xyz
  1  'x, y, z'
loop_
 _atom_site_type_symbol
 _atom_site_label
 _atom_site_symmetry_multiplicity
 _atom_site_fract_x
 _atom_site_fract_y
 _atom_site_fract_z
 _atom_site_occupancy
  C  C1  1  0.027375  0.907807  0.598937  1
  C  C2  1  0.548505  0.806661  0.641283  1
  C  C3  1  0.108197  0.449620  0.760592  1
  C  C4  1  0.640756  0.622807  0.825667  1
  C  C5  1  0.428292  0.164347  0.400468  1
  C  C6  1  0.308822  -0.015966  0.161503  1
  C  C7  1  0.756148  0.868238  0.056131  1
  C  C8  1  -0.001732  0.183332  0.540576  1
