# generated using pymatgen
data_C
_symmetry_space_group_name_H-M   'P 1'
_cell_length_a   2.60237531
_cell_length_b   4.29429570
_cell_length_c   4.89504846
_cell_angle_alpha   89.12678171
_cell_angle_beta   78.60826238
_cell_angle_gamma   72.97535264
_symmetry_Int_Tables_number   1
_chemical_formula_structural   C
_chemical_formula_sum   C8
_cell_volume   51.22336740
_cell_formula_units_Z   8
loop_
 _symmetry_equiv_pos_site_id
 _symmetry_equiv_pos_as_xyz
  1  'x, y, z'
loop_
 _atom_site_type_symbol
 _atom_site_label
 _atom_site_symmetry_multiplicity
 _atom_site_fract_x
 _atom_site_fract_y
 _atom_site_fract_z
 _atom_site_occupancy
  C  C1  1  0.586267  0.788836  0.582956  1
  C  C2  1  0.637717  0.938315  0.827036  1
  C  C3  1  0.701482  0.767030  0.073762  1
  C  C4  1  0.650742  0.447537  0.581794  1
  C  C5  1  0.515578  -0.010267  0.331697  1
  C  C6  1  0.528469  0.299720  0.865583  1
  C  C7  1  0.917208  0.399895  0.041116  1
  C  C8  1  0.903034  0.215384  0.323809  1
