# generated using pymatgen
data_C
_symmetry_space_group_name_H-M   'P 1'
_cell_length_a   2.58374749
_cell_length_b   4.25530411
_cell_length_c   4.94542672
_cell_angle_alpha   88.63830880
_cell_angle_beta   106.85601354
_cell_angle_gamma   106.26719977
_symmetry_Int_Tables_number   1
_chemical_formula_structural   C
_chemical_formula_sum   C8
_cell_volume   49.85601795
_cell_formula_units_Z   8
loop_
 _symmetry_equiv_pos_site_id
 _symmetry_equiv_pos_as_xyz
  1  'x, y, z'
loop_
 _atom_site_type_symbol
 _atom_site_label
 _atom_site_symmetry_multiplicity
 _atom_site_fract_x
 _atom_site_fract_y
 _atom_site_fract_z
 _atom_site_occupancy
  C  C1  1  0.351641  0.554104  0.070514  1
  C  C2  1  0.238114  0.721959  0.816347  1
  C  C3  1  0.441987  0.091095  0.845335  1
  C  C4  1  0.086326  0.190128  0.022287  1
  C  C5  1  0.859330  0.687163  0.293980  1
  C  C6  1  0.966065  0.494780  0.553508  1
  C  C7  1  0.365202  0.269295  0.562298  1
  C  C8  1  0.124132  0.031282  0.303077  1
