# generated using pymatgen
data_C
_symmetry_space_group_name_H-M   'P 1'
_cell_length_a   2.47612674
_cell_length_b   4.13081697
_cell_length_c   8.26097660
_cell_angle_alpha   104.07902842
_cell_angle_beta   93.91270492
_cell_angle_gamma   89.75497209
_symmetry_Int_Tables_number   1
_chemical_formula_structural   C
_chemical_formula_sum   C10
_cell_volume   81.76094072
_cell_formula_units_Z   10
loop_
 _symmetry_equiv_pos_site_id
 _symmetry_equiv_pos_as_xyz
  1  'x, y, z'
loop_
 _atom_site_type_symbol
 _atom_site_label
 _atom_site_symmetry_multiplicity
 _atom_site_fract_x
 _atom_site_fract_y
 _atom_site_fract_z
 _atom_site_occupancy
  C  C1  1  0.675288  0.287690  0.788256  1
  C  C2  1  0.643327  -0.003460  0.651796  1
  C  C3  1  0.098520  0.567719  0.446605  1
  C  C4  1  0.128881  0.851639  0.585009  1
  C  C5  1  0.582013  0.447652  0.369584  1
  C  C6  1  0.190705  0.406666  0.853395  1
  C  C7  1  0.023896  0.710139  0.088690  1
  C  C8  1  0.031942  0.063654  0.141636  1
  C  C9  1  0.513725  0.549127  0.096929  1
  C  C10  1  0.539659  0.268026  0.183748  1
