# generated using pymatgen
data_C
_symmetry_space_group_name_H-M   'P 1'
_cell_length_a   3.60291901
_cell_length_b   4.17763383
_cell_length_c   4.67278135
_cell_angle_alpha   64.89403670
_cell_angle_beta   81.81279021
_cell_angle_gamma   73.94902531
_symmetry_Int_Tables_number   1
_chemical_formula_structural   C
_chemical_formula_sum   C8
_cell_volume   61.18016210
_cell_formula_units_Z   8
loop_
 _symmetry_equiv_pos_site_id
 _symmetry_equiv_pos_as_xyz
  1  'x, y, z'
loop_
 _atom_site_type_symbol
 _atom_site_label
 _atom_site_symmetry_multiplicity
 _atom_site_fract_x
 _atom_site_fract_y
 _atom_site_fract_z
 _atom_site_occupancy
  C  C1  1  0.661174  0.813368  0.630252  1
  C  C2  1  0.792623  0.679803  0.396838  1
  C  C3  1  0.120204  0.354282  0.078498  1
  C  C4  1  0.312474  0.094066  0.960864  1
  C  C5  1  0.762669  0.577657  0.946716  1
  C  C6  1  0.381401  0.137627  0.631662  1
  C  C7  1  0.213098  0.461768  0.339028  1
  C  C8  1  0.496805  0.706020  0.181667  1
