data_image0
_cell_length_a       3.19706
_cell_length_b       4.74672
_cell_length_c       4.69642
_cell_angle_alpha    65.3207
_cell_angle_beta     74.0905
_cell_angle_gamma    69.4138

_symmetry_space_group_name_H-M    "P 1"
_symmetry_int_tables_number       1

loop_
  _symmetry_equiv_pos_as_xyz
  'x, y, z'

loop_
  _atom_site_label
  _atom_site_occupancy
  _atom_site_fract_x
  _atom_site_fract_y
  _atom_site_fract_z
  _atom_site_thermal_displace_type
  _atom_site_B_iso_or_equiv
  _atom_site_type_symbol
  C1       1.0000 0.65182  0.79579  0.63578  Biso   1.000  C
  C2       1.0000 0.78329  0.66036  0.40560  Biso   1.000  C
  C3       1.0000 0.10062  0.34345  0.08846  Biso   1.000  C
  C4       1.0000 0.33450  0.11270  0.95292  Biso   1.000  C
  C5       1.0000 0.81097  0.63493  0.92761  Biso   1.000  C
  C6       1.0000 0.34280  0.10881  0.64015  Biso   1.000  C
  C7       1.0000 0.09231  0.34734  0.40123  Biso   1.000  C
  C8       1.0000 0.62414  0.82122  0.11377  Biso   1.000  C
