# generated using pymatgen
data_C
_symmetry_space_group_name_H-M   'P 1'
_cell_length_a   2.55497871
_cell_length_b   4.32308075
_cell_length_c   5.63583674
_cell_angle_alpha   90.00041599
_cell_angle_beta   90.10878747
_cell_angle_gamma   90.00004382
_symmetry_Int_Tables_number   1
_chemical_formula_structural   C
_chemical_formula_sum   C10
_cell_volume   62.24984211
_cell_formula_units_Z   10
loop_
 _symmetry_equiv_pos_site_id
 _symmetry_equiv_pos_as_xyz
  1  'x, y, z'
loop_
 _atom_site_type_symbol
 _atom_site_label
 _atom_site_symmetry_multiplicity
 _atom_site_fract_x
 _atom_site_fract_y
 _atom_site_fract_z
 _atom_site_occupancy
  C  C1  1  0.914480  0.713238  0.863809  1
  C  C2  1  0.914483  0.377764  0.863804  1
  C  C3  1  0.916625  0.228125  0.622115  1
  C  C4  1  0.916626  0.862877  0.622120  1
  C  C5  1  0.913378  0.789012  0.107316  1
  C  C6  1  0.913377  0.301966  0.107304  1
  C  C7  1  0.413924  0.863102  0.236895  1
  C  C8  1  0.413923  0.227883  0.236888  1
  C  C9  1  0.415568  0.357527  0.489438  1
  C  C10  1  0.415565  0.733468  0.489444  1
