# generated using pymatgen
data_C
_symmetry_space_group_name_H-M   'P 1'
_cell_length_a   2.53261592
_cell_length_b   4.29419847
_cell_length_c   5.14127438
_cell_angle_alpha   106.03120446
_cell_angle_beta   94.06947229
_cell_angle_gamma   94.47907598
_symmetry_Int_Tables_number   1
_chemical_formula_structural   C
_chemical_formula_sum   C8
_cell_volume   53.32525382
_cell_formula_units_Z   8
loop_
 _symmetry_equiv_pos_site_id
 _symmetry_equiv_pos_as_xyz
  1  'x, y, z'
loop_
 _atom_site_type_symbol
 _atom_site_label
 _atom_site_symmetry_multiplicity
 _atom_site_fract_x
 _atom_site_fract_y
 _atom_site_fract_z
 _atom_site_occupancy
  C  C1  1  0.808485  0.550543  0.111368  1
  C  C2  1  -0.008527  0.694817  0.905732  1
  C  C3  1  0.131077  0.036596  -0.014438  1
  C  C4  1  0.668881  0.208766  0.031539  1
  C  C5  1  0.403120  0.949366  0.472362  1
  C  C6  1  0.396837  0.295997  0.544739  1
  C  C7  1  0.924298  0.503173  0.603035  1
  C  C8  1  0.875657  0.742189  0.414067  1
