data_image0
_cell_length_a       3.6495
_cell_length_b       4.14405
_cell_length_c       4.78606
_cell_angle_alpha    99.2848
_cell_angle_beta     71.4701
_cell_angle_gamma    85.0226

_symmetry_space_group_name_H-M    "P 1"
_symmetry_int_tables_number       1

loop_
  _symmetry_equiv_pos_as_xyz
  'x, y, z'

loop_
  _atom_site_label
  _atom_site_occupancy
  _atom_site_fract_x
  _atom_site_fract_y
  _atom_site_fract_z
  _atom_site_thermal_displace_type
  _atom_site_B_iso_or_equiv
  _atom_site_type_symbol
  C1       1.0000 0.10700  0.00495  0.44409  Biso   1.000  C
  C2       1.0000 0.50599  0.94334  0.40145  Biso   1.000  C
  C3       1.0000 0.76818  0.86215  0.55657  Biso   1.000  C
  C4       1.0000 0.84781  0.55091  0.63469  Biso   1.000  C
  C5       1.0000 0.86120  0.57574  0.93255  Biso   1.000  C
  C6       1.0000 0.97681  0.31648  0.36949  Biso   1.000  C
  C7       1.0000 0.75032  0.94780  0.08468  Biso   1.000  C
  C8       1.0000 0.89166  0.29792  0.08752  Biso   1.000  C
