# generated using pymatgen
data_C
_symmetry_space_group_name_H-M   'P 1'
_cell_length_a   2.50978915
_cell_length_b   3.73160653
_cell_length_c   7.52654527
_cell_angle_alpha   91.32323205
_cell_angle_beta   89.94417089
_cell_angle_gamma   109.39899692
_symmetry_Int_Tables_number   1
_chemical_formula_structural   C
_chemical_formula_sum   C8
_cell_volume   66.46896001
_cell_formula_units_Z   8
loop_
 _symmetry_equiv_pos_site_id
 _symmetry_equiv_pos_as_xyz
  1  'x, y, z'
loop_
 _atom_site_type_symbol
 _atom_site_label
 _atom_site_symmetry_multiplicity
 _atom_site_fract_x
 _atom_site_fract_y
 _atom_site_fract_z
 _atom_site_occupancy
  C  C1  1  0.238385  0.212016  0.049350  1
  C  C2  1  0.258479  0.253681  0.237676  1
  C  C3  1  0.410863  0.558264  0.724184  1
  C  C4  1  0.867208  0.470501  0.802532  1
  C  C5  1  0.760528  0.256218  -0.040761  1
  C  C6  1  0.244465  0.226117  0.424265  1
  C  C7  1  0.461201  0.658984  0.529457  1
  C  C8  1  0.066831  0.871424  0.487819  1
