data_image0
_cell_length_a       3.22441
_cell_length_b       4.69946
_cell_length_c       4.69927
_cell_angle_alpha    76.3225
_cell_angle_beta     66.5556
_cell_angle_gamma    66.8229

_symmetry_space_group_name_H-M    "P 1"
_symmetry_int_tables_number       1

loop_
  _symmetry_equiv_pos_as_xyz
  'x, y, z'

loop_
  _atom_site_label
  _atom_site_occupancy
  _atom_site_fract_x
  _atom_site_fract_y
  _atom_site_fract_z
  _atom_site_thermal_displace_type
  _atom_site_B_iso_or_equiv
  _atom_site_type_symbol
  C1       1.0000 0.81065  0.69512  0.41718  Biso   1.000  C
  C2       1.0000 0.81049  0.93651  0.17587  Biso   1.000  C
  C3       1.0000 0.81131  0.40897  0.88964  Biso   1.000  C
  C4       1.0000 0.80983  0.22266  0.70340  Biso   1.000  C
  C5       1.0000 0.81100  0.93167  0.86369  Biso   1.000  C
  C6       1.0000 0.81014  0.69996  0.72935  Biso   1.000  C
  C7       1.0000 0.80982  0.24873  0.18077  Biso   1.000  C
  C8       1.0000 0.81132  0.38290  0.41227  Biso   1.000  C
