# generated using pymatgen
data_C
_symmetry_space_group_name_H-M   'P 1'
_cell_length_a   2.71018305
_cell_length_b   4.74122321
_cell_length_c   4.69388893
_cell_angle_alpha   77.38229471
_cell_angle_beta   74.45542457
_cell_angle_gamma   76.70643934
_symmetry_Int_Tables_number   1
_chemical_formula_structural   C
_chemical_formula_sum   C8
_cell_volume   55.75467388
_cell_formula_units_Z   8
loop_
 _symmetry_equiv_pos_site_id
 _symmetry_equiv_pos_as_xyz
  1  'x, y, z'
loop_
 _atom_site_type_symbol
 _atom_site_label
 _atom_site_symmetry_multiplicity
 _atom_site_fract_x
 _atom_site_fract_y
 _atom_site_fract_z
 _atom_site_occupancy
  C  C1  1  0.861183  0.694263  0.409403  1
  C  C2  1  0.759957  0.937367  0.183640  1
  C  C3  1  0.741014  0.422378  0.895267  1
  C  C4  1  0.880128  0.209252  0.697776  1
  C  C5  1  0.829403  0.928232  0.864341  1
  C  C6  1  0.791736  0.703398  0.728701  1
  C  C7  1  0.613379  0.274426  0.221845  1
  C  C8  1  0.007759  0.357204  0.371197  1
