# generated using pymatgen
data_C
_symmetry_space_group_name_H-M   'P 1'
_cell_length_a   3.62888715
_cell_length_b   3.58801063
_cell_length_c   4.61055217
_cell_angle_alpha   107.74814391
_cell_angle_beta   86.90032122
_cell_angle_gamma   83.17249929
_symmetry_Int_Tables_number   1
_chemical_formula_structural   C
_chemical_formula_sum   C7
_cell_volume   56.50953477
_cell_formula_units_Z   7
loop_
 _symmetry_equiv_pos_site_id
 _symmetry_equiv_pos_as_xyz
  1  'x, y, z'
loop_
 _atom_site_type_symbol
 _atom_site_label
 _atom_site_symmetry_multiplicity
 _atom_site_fract_x
 _atom_site_fract_y
 _atom_site_fract_z
 _atom_site_occupancy
  C  C1  1  0.243821  0.183117  0.910215  1
  C  C2  1  0.399188  0.864658  0.006526  1
  C  C3  1  0.868549  0.347326  -0.003838  1
  C  C4  1  0.603405  0.317319  0.487147  1
  C  C5  1  0.541594  0.933956  0.308018  1
  C  C6  1  0.724664  0.560001  0.320404  1
  C  C7  1  0.521705  0.426503  0.822353  1
