# generated using pymatgen
data_C
_symmetry_space_group_name_H-M   'P 1'
_cell_length_a   2.72119644
_cell_length_b   4.76439340
_cell_length_c   4.76439340
_cell_angle_alpha   104.01408296
_cell_angle_beta   102.32494695
_cell_angle_gamma   102.32494694
_symmetry_Int_Tables_number   1
_chemical_formula_structural   C
_chemical_formula_sum   C8
_cell_volume   56.21256220
_cell_formula_units_Z   8
loop_
 _symmetry_equiv_pos_site_id
 _symmetry_equiv_pos_as_xyz
  1  'x, y, z'
loop_
 _atom_site_type_symbol
 _atom_site_label
 _atom_site_symmetry_multiplicity
 _atom_site_fract_x
 _atom_site_fract_y
 _atom_site_fract_z
 _atom_site_occupancy
  C  C1  1  0.417407  0.151162  0.723651  1
  C  C2  1  0.311706  0.363546  0.583013  1
  C  C3  1  0.311706  0.687035  0.259524  1
  C  C4  1  0.417407  0.827673  0.047139  1
  C  C5  1  0.364557  0.852807  0.557878  1
  C  C6  1  0.364557  0.661900  0.748786  1
  C  C7  1  0.551413  0.179492  0.075470  1
  C  C8  1  0.177703  0.335216  0.231194  1
