# generated using pymatgen
data_C
_symmetry_space_group_name_H-M   'P 1'
_cell_length_a   3.63218866
_cell_length_b   3.63218866
_cell_length_c   4.61543518
_cell_angle_alpha   82.10949476
_cell_angle_beta   82.10949476
_cell_angle_gamma   93.17788013
_symmetry_Int_Tables_number   1
_chemical_formula_structural   C
_chemical_formula_sum   C7
_cell_volume   59.57148738
_cell_formula_units_Z   7
loop_
 _symmetry_equiv_pos_site_id
 _symmetry_equiv_pos_as_xyz
  1  'x, y, z'
loop_
 _atom_site_type_symbol
 _atom_site_label
 _atom_site_symmetry_multiplicity
 _atom_site_fract_x
 _atom_site_fract_y
 _atom_site_fract_z
 _atom_site_occupancy
  C  C1  1  0.210272  0.430892  0.963108  1
  C  C2  1  0.038089  0.061733  0.004821  1
  C  C3  1  0.359223  0.579841  0.653019  1
  C  C4  1  0.077817  0.651696  0.463459  1
  C  C5  1  0.728380  0.752023  0.611304  1
  C  C6  1  0.783062  1.007052  0.808062  1
  C  C7  1  0.138417  0.712297  0.152667  1
