data_image0
_cell_length_a       3.79254
_cell_length_b       3.79254
_cell_length_c       4.75477
_cell_angle_alpha    84.1281
_cell_angle_beta     84.1281
_cell_angle_gamma    106.471

_symmetry_space_group_name_H-M    "P 1"
_symmetry_int_tables_number       1

loop_
  _symmetry_equiv_pos_as_xyz
  'x, y, z'

loop_
  _atom_site_label
  _atom_site_occupancy
  _atom_site_fract_x
  _atom_site_fract_y
  _atom_site_fract_z
  _atom_site_thermal_displace_type
  _atom_site_B_iso_or_equiv
  _atom_site_type_symbol
  C1       1.0000 0.18477  0.48262  0.96865  Biso   1.000  C
  C2       1.0000 0.07141  0.06919  0.99938  Biso   1.000  C
  C3       1.0000 0.30749  0.60535  0.64747  Biso   1.000  C
  C4       1.0000 0.06029  0.65341  0.46370  Biso   1.000  C
  C5       1.0000 0.72092  0.71870  0.61675  Biso   1.000  C
  C6       1.0000 0.85368  0.93644  0.80806  Biso   1.000  C
  C7       1.0000 0.13670  0.72983  0.15243  Biso   1.000  C
