# generated using pymatgen
data_C
_symmetry_space_group_name_H-M   'P 1'
_cell_length_a   2.50710504
_cell_length_b   5.18616691
_cell_length_c   5.39213768
_cell_angle_alpha   118.63814155
_cell_angle_beta   89.99999894
_cell_angle_gamma   90.00000522
_symmetry_Int_Tables_number   1
_chemical_formula_structural   C
_chemical_formula_sum   C9
_cell_volume   61.53303491
_cell_formula_units_Z   9
loop_
 _symmetry_equiv_pos_site_id
 _symmetry_equiv_pos_as_xyz
  1  'x, y, z'
loop_
 _atom_site_type_symbol
 _atom_site_label
 _atom_site_symmetry_multiplicity
 _atom_site_fract_x
 _atom_site_fract_y
 _atom_site_fract_z
 _atom_site_occupancy
  C  C1  1  0.040440  0.481611  0.930917  1
  C  C2  1  0.540440  0.322045  0.778851  1
  C  C3  1  0.040440  0.545978  0.274397  1
  C  C4  1  0.540440  0.504481  0.372629  1
  C  C5  1  0.040440  0.938447  0.864408  1
  C  C6  1  0.540440  0.032609  0.803261  1
  C  C7  1  0.540440  0.257976  0.466499  1
  C  C8  1  0.040440  0.083855  0.341734  1
  C  C9  1  0.040440  0.853619  0.074377  1
