# generated using pymatgen
data_C
_symmetry_space_group_name_H-M   'P 1'
_cell_length_a   3.47468956
_cell_length_b   3.59316773
_cell_length_c   6.74467026
_cell_angle_alpha   84.71247066
_cell_angle_beta   77.45920153
_cell_angle_gamma   110.28637700
_symmetry_Int_Tables_number   1
_chemical_formula_structural   C
_chemical_formula_sum   C8
_cell_volume   75.80022537
_cell_formula_units_Z   8
loop_
 _symmetry_equiv_pos_site_id
 _symmetry_equiv_pos_as_xyz
  1  'x, y, z'
loop_
 _atom_site_type_symbol
 _atom_site_label
 _atom_site_symmetry_multiplicity
 _atom_site_fract_x
 _atom_site_fract_y
 _atom_site_fract_z
 _atom_site_occupancy
  C  C1  1  0.718630  0.353841  0.089579  1
  C  C2  1  0.775673  0.718076  0.153528  1
  C  C3  1  0.835871  0.055907  0.008950  1
  C  C4  1  0.646579  0.691481  0.575161  1
  C  C5  1  0.761249  0.744696  0.360010  1
  C  C6  1  0.015548  0.119634  0.791814  1
  C  C7  1  0.208704  0.533226  0.684935  1
  C  C8  1  0.965932  0.786359  0.684594  1
