data_image0
_cell_length_a       3.60251
_cell_length_b       3.70109
_cell_length_c       5.0118
_cell_angle_alpha    82.5536
_cell_angle_beta     112.58
_cell_angle_gamma    110.185

_symmetry_space_group_name_H-M    "P 1"
_symmetry_int_tables_number       1

loop_
  _symmetry_equiv_pos_as_xyz
  'x, y, z'

loop_
  _atom_site_label
  _atom_site_occupancy
  _atom_site_fract_x
  _atom_site_fract_y
  _atom_site_fract_z
  _atom_site_thermal_displace_type
  _atom_site_B_iso_or_equiv
  _atom_site_type_symbol
  C1       1.0000 0.99610  0.54542  0.07252  Biso   1.000  C
  C2       1.0000 0.76673  0.77223  0.14246  Biso   1.000  C
  C3       1.0000 0.89285  0.12892  0.02047  Biso   1.000  C
  C4       1.0000 0.52702  0.59957  0.55812  Biso   1.000  C
  C5       1.0000 0.44815  0.64795  0.27578  Biso   1.000  C
  C6       1.0000 0.08562  0.12141  0.81476  Biso   1.000  C
  C7       1.0000 0.21590  0.47894  0.69535  Biso   1.000  C
  C8       1.0000 0.99580  0.70878  0.76911  Biso   1.000  C
