# generated using pymatgen
data_C
_symmetry_space_group_name_H-M   'P 1'
_cell_length_a   3.58437469
_cell_length_b   4.27647530
_cell_length_c   5.73974557
_cell_angle_alpha   90.00000002
_cell_angle_beta   80.15807426
_cell_angle_gamma   90.00000001
_symmetry_Int_Tables_number   1
_chemical_formula_structural   C
_chemical_formula_sum   C8
_cell_volume   86.68681351
_cell_formula_units_Z   8
loop_
 _symmetry_equiv_pos_site_id
 _symmetry_equiv_pos_as_xyz
  1  'x, y, z'
loop_
 _atom_site_type_symbol
 _atom_site_label
 _atom_site_symmetry_multiplicity
 _atom_site_fract_x
 _atom_site_fract_y
 _atom_site_fract_z
 _atom_site_occupancy
  C  C1  1  0.098095  0.385614  0.754533  1
  C  C2  1  0.098095  0.058663  0.754533  1
  C  C3  1  0.677614  0.954529  0.141625  1
  C  C4  1  0.518577  0.954529  0.367441  1
  C  C5  1  0.362896  0.872803  0.597561  1
  C  C6  1  0.833293  0.872803  -0.088496  1
  C  C7  1  0.435189  0.572602  0.699114  1
  C  C8  1  0.761000  0.572602  0.809952  1
