# generated using pymatgen
data_C
_symmetry_space_group_name_H-M   'P 1'
_cell_length_a   2.53603134
_cell_length_b   4.96282312
_cell_length_c   5.97265894
_cell_angle_alpha   114.35942014
_cell_angle_beta   89.37950957
_cell_angle_gamma   91.02418611
_symmetry_Int_Tables_number   1
_chemical_formula_structural   C
_chemical_formula_sum   C10
_cell_volume   68.46767082
_cell_formula_units_Z   10
loop_
 _symmetry_equiv_pos_site_id
 _symmetry_equiv_pos_as_xyz
  1  'x, y, z'
loop_
 _atom_site_type_symbol
 _atom_site_label
 _atom_site_symmetry_multiplicity
 _atom_site_fract_x
 _atom_site_fract_y
 _atom_site_fract_z
 _atom_site_occupancy
  C  C1  1  0.674297  0.475491  0.863352  1
  C  C2  1  0.125919  0.639000  0.025048  1
  C  C3  1  0.146504  0.563982  0.246268  1
  C  C4  1  0.679734  0.316232  0.611254  1
  C  C5  1  0.164699  0.265736  0.241075  1
  C  C6  1  0.179886  0.265675  0.481350  1
  C  C7  1  0.653793  0.955384  0.877087  1
  C  C8  1  0.652708  0.846167  0.617856  1
  C  C9  1  0.152243  0.784306  0.491730  1
  C  C10  1  0.153802  0.968281  0.020558  1
