data_image0
_cell_length_a       3.61687
_cell_length_b       3.69819
_cell_length_c       4.99522
_cell_angle_alpha    81.6681
_cell_angle_beta     112.463
_cell_angle_gamma    109.923

_symmetry_space_group_name_H-M    "P 1"
_symmetry_int_tables_number       1

loop_
  _symmetry_equiv_pos_as_xyz
  'x, y, z'

loop_
  _atom_site_label
  _atom_site_occupancy
  _atom_site_fract_x
  _atom_site_fract_y
  _atom_site_fract_z
  _atom_site_thermal_displace_type
  _atom_site_B_iso_or_equiv
  _atom_site_type_symbol
  C1       1.0000 0.57159  0.03278  0.98593  Biso   1.000  C
  C2       1.0000 0.70349  0.39393  0.86774  Biso   1.000  C
  C3       1.0000 0.79640  0.80575  0.91571  Biso   1.000  C
  C4       1.0000 0.89631  0.39055  0.66207  Biso   1.000  C
  C5       1.0000 0.34106  0.87193  0.40721  Biso   1.000  C
  C6       1.0000 0.26018  0.91178  0.12333  Biso   1.000  C
  C7       1.0000 0.02959  0.75175  0.54454  Biso   1.000  C
  C8       1.0000 0.80483  0.97891  0.61474  Biso   1.000  C
