# generated using pymatgen
data_C
_symmetry_space_group_name_H-M   'P 1'
_cell_length_a   3.47272437
_cell_length_b   3.60607142
_cell_length_c   6.60994481
_cell_angle_alpha   84.84974932
_cell_angle_beta   82.88768441
_cell_angle_gamma   110.55199948
_symmetry_Int_Tables_number   1
_chemical_formula_structural   C
_chemical_formula_sum   C8
_cell_volume   76.11607805
_cell_formula_units_Z   8
loop_
 _symmetry_equiv_pos_site_id
 _symmetry_equiv_pos_as_xyz
  1  'x, y, z'
loop_
 _atom_site_type_symbol
 _atom_site_label
 _atom_site_symmetry_multiplicity
 _atom_site_fract_x
 _atom_site_fract_y
 _atom_site_fract_z
 _atom_site_occupancy
  C  C1  1  0.627200  1.000541  0.000463  1
  C  C2  1  0.715978  0.343325  0.856127  1
  C  C3  1  0.723428  0.684567  -0.060893  1
  C  C4  1  0.804925  0.376813  0.637566  1
  C  C5  1  0.382195  0.935543  0.420906  1
  C  C6  1  0.461208  0.983414  0.206185  1
  C  C7  1  0.965621  0.780408  0.528675  1
  C  C8  1  0.722904  0.032767  0.532246  1
