# generated using pymatgen
data_C
_symmetry_space_group_name_H-M   'P 1'
_cell_length_a   2.55013814
_cell_length_b   5.25360438
_cell_length_c   5.51015752
_cell_angle_alpha   117.02702731
_cell_angle_beta   90.00000000
_cell_angle_gamma   90.00000000
_symmetry_Int_Tables_number   1
_chemical_formula_structural   C
_chemical_formula_sum   C10
_cell_volume   65.75995771
_cell_formula_units_Z   10
loop_
 _symmetry_equiv_pos_site_id
 _symmetry_equiv_pos_as_xyz
  1  'x, y, z'
loop_
 _atom_site_type_symbol
 _atom_site_label
 _atom_site_symmetry_multiplicity
 _atom_site_fract_x
 _atom_site_fract_y
 _atom_site_fract_z
 _atom_site_occupancy
  C  C1  1  0.373325  0.287116  0.081324  1
  C  C2  1  0.373325  0.221145  0.808053  1
  C  C3  1  0.373325  0.784321  0.357175  1
  C  C4  1  0.373325  0.917687  0.645796  1
  C  C5  1  0.873325  0.765959  0.227318  1
  C  C6  1  0.873325  0.868632  0.013140  1
  C  C7  1  0.873325  0.344215  0.489519  1
  C  C8  1  0.373325  0.436212  0.652593  1
  C  C9  1  0.373325  0.763910  0.825582  1
  C  C10  1  0.873325  0.212146  0.185889  1
