# generated using pymatgen
data_C
_symmetry_space_group_name_H-M   'P 1'
_cell_length_a   4.84308758
_cell_length_b   4.87091877
_cell_length_c   6.55029800
_cell_angle_alpha   67.99978009
_cell_angle_beta   87.62627729
_cell_angle_gamma   63.45367708
_symmetry_Int_Tables_number   1
_chemical_formula_structural   C
_chemical_formula_sum   C13
_cell_volume   126.67918556
_cell_formula_units_Z   13
loop_
 _symmetry_equiv_pos_site_id
 _symmetry_equiv_pos_as_xyz
  1  'x, y, z'
loop_
 _atom_site_type_symbol
 _atom_site_label
 _atom_site_symmetry_multiplicity
 _atom_site_fract_x
 _atom_site_fract_y
 _atom_site_fract_z
 _atom_site_occupancy
  C  C1  1  0.939775  0.238871  0.706595  1
  C  C2  1  0.117580  0.375326  0.763172  1
  C  C3  1  0.653333  0.349413  0.143561  1
  C  C4  1  0.686330  0.043300  0.216751  1
  C  C5  1  0.637718  0.659950  0.090014  1
  C  C6  1  0.608358  0.786509  0.256937  1
  C  C7  1  0.474852  0.697404  0.451205  1
  C  C8  1  0.206847  0.941278  0.481793  1
  C  C9  1  0.070088  0.938691  0.672346  1
  C  C10  1  0.612174  0.400061  0.644792  1
  C  C11  1  0.668184  0.844911  0.870811  1
  C  C12  1  0.956052  0.701234  0.779767  1
  C  C13  1  0.455425  0.208109  0.761934  1
