data_image0
_cell_length_a       3.18297
_cell_length_b       4.69854
_cell_length_c       4.69841
_cell_angle_alpha    103.583
_cell_angle_beta     107.179
_cell_angle_gamma    107.392

_symmetry_space_group_name_H-M    "P 1"
_symmetry_int_tables_number       1

loop_
  _symmetry_equiv_pos_as_xyz
  'x, y, z'

loop_
  _atom_site_label
  _atom_site_occupancy
  _atom_site_fract_x
  _atom_site_fract_y
  _atom_site_fract_z
  _atom_site_thermal_displace_type
  _atom_site_B_iso_or_equiv
  _atom_site_type_symbol
  C1       1.0000 0.89892  0.86936  0.36151  Biso   1.000  C
  C2       1.0000 0.91177  0.63090  0.12300  Biso   1.000  C
  C3       1.0000 0.90711  0.63491  0.81000  Biso   1.000  C
  C4       1.0000 0.90532  0.34321  0.64918  Biso   1.000  C
  C5       1.0000 0.90352  0.18239  0.35745  Biso   1.000  C
  C6       1.0000 0.90716  0.31787  0.12706  Biso   1.000  C
  C7       1.0000 0.90536  0.15705  0.83533  Biso   1.000  C
  C8       1.0000 0.90357  0.86535  0.67451  Biso   1.000  C
