data_image0
_cell_length_a       3.53285
_cell_length_b       3.5537
_cell_length_c       4.70775
_cell_angle_alpha    67.9462
_cell_angle_beta     89.1589
_cell_angle_gamma    84.3618

_symmetry_space_group_name_H-M    "P 1"
_symmetry_int_tables_number       1

loop_
  _symmetry_equiv_pos_as_xyz
  'x, y, z'

loop_
  _atom_site_label
  _atom_site_occupancy
  _atom_site_fract_x
  _atom_site_fract_y
  _atom_site_fract_z
  _atom_site_thermal_displace_type
  _atom_site_B_iso_or_equiv
  _atom_site_type_symbol
  C1       1.0000 0.15892  0.33895  0.17638  Biso   1.000  C
  C2       1.0000 0.24445  0.44295  0.84878  Biso   1.000  C
  C3       1.0000 0.90254  0.50031  0.33725  Biso   1.000  C
  C4       1.0000 0.64654  0.84382  0.20296  Biso   1.000  C
  C5       1.0000 0.39017  0.00519  0.36383  Biso   1.000  C
  C6       1.0000 0.58744  0.09867  0.85851  Biso   1.000  C
  C7       1.0000 0.96164  0.24546  0.68169  Biso   1.000  C
  C8       1.0000 0.30463  0.90118  0.69142  Biso   1.000  C
