# generated using pymatgen
data_C
_symmetry_space_group_name_H-M   'P 1'
_cell_length_a   3.83937027
_cell_length_b   4.25760207
_cell_length_c   4.64160719
_cell_angle_alpha   98.73859074
_cell_angle_beta   102.42750865
_cell_angle_gamma   106.81179864
_symmetry_Int_Tables_number   1
_chemical_formula_structural   C
_chemical_formula_sum   C8
_cell_volume   69.04288279
_cell_formula_units_Z   8
loop_
 _symmetry_equiv_pos_site_id
 _symmetry_equiv_pos_as_xyz
  1  'x, y, z'
loop_
 _atom_site_type_symbol
 _atom_site_label
 _atom_site_symmetry_multiplicity
 _atom_site_fract_x
 _atom_site_fract_y
 _atom_site_fract_z
 _atom_site_occupancy
  C  C1  1  0.657195  0.297536  0.729150  1
  C  C2  1  0.433468  0.958886  0.547770  1
  C  C3  1  0.876616  0.485651  0.556049  1
  C  C4  1  0.240555  0.719600  0.689177  1
  C  C5  1  0.433475  0.703290  0.988528  1
  C  C6  1  0.602273  0.446460  0.998992  1
  C  C7  1  0.482010  0.955649  0.243388  1
  C  C8  1  0.683622  0.307627  0.248504  1
