data_image0
_cell_length_a       3.17775
_cell_length_b       4.45923
_cell_length_c       4.79085
_cell_angle_alpha    101.215
_cell_angle_beta     101.17
_cell_angle_gamma    103.59

_symmetry_space_group_name_H-M    "P 1"
_symmetry_int_tables_number       1

loop_
  _symmetry_equiv_pos_as_xyz
  'x, y, z'

loop_
  _atom_site_label
  _atom_site_occupancy
  _atom_site_fract_x
  _atom_site_fract_y
  _atom_site_fract_z
  _atom_site_thermal_displace_type
  _atom_site_B_iso_or_equiv
  _atom_site_type_symbol
  C1       1.0000 0.64723  0.27658  0.72322  Biso   1.000  C
  C2       1.0000 0.46712  0.96581  0.55313  Biso   1.000  C
  C3       1.0000 0.85055  0.47670  0.55042  Biso   1.000  C
  C4       1.0000 0.24295  0.72359  0.68171  Biso   1.000  C
  C5       1.0000 0.45058  0.71814  0.99604  Biso   1.000  C
  C6       1.0000 0.59337  0.43743  0.00145  Biso   1.000  C
  C7       1.0000 0.50590  0.97320  0.24826  Biso   1.000  C
  C8       1.0000 0.65152  0.30324  0.24733  Biso   1.000  C
