# generated using pymatgen
data_C
_symmetry_space_group_name_H-M   'P 1'
_cell_length_a   4.30377330
_cell_length_b   3.60521674
_cell_length_c   4.71700593
_cell_angle_alpha   67.53301783
_cell_angle_beta   85.33915704
_cell_angle_gamma   77.72338495
_symmetry_Int_Tables_number   1
_chemical_formula_structural   C
_chemical_formula_sum   C7
_cell_volume   66.08753413
_cell_formula_units_Z   7
loop_
 _symmetry_equiv_pos_site_id
 _symmetry_equiv_pos_as_xyz
  1  'x, y, z'
loop_
 _atom_site_type_symbol
 _atom_site_label
 _atom_site_symmetry_multiplicity
 _atom_site_fract_x
 _atom_site_fract_y
 _atom_site_fract_z
 _atom_site_occupancy
  C  C1  1  0.253947  0.609463  0.181210  1
  C  C2  1  0.543243  0.338891  0.248659  1
  C  C3  1  0.832538  0.135770  0.181210  1
  C  C4  1  0.043242  0.773870  0.378703  1
  C  C5  1  0.043242  0.613649  0.699144  1
  C  C6  1  0.126589  0.829447  0.868500  1
  C  C7  1  -0.040105  0.228495  0.868500  1
