data_image0
_cell_length_a       3.55668
_cell_length_b       3.78167
_cell_length_c       4.86477
_cell_angle_alpha    67.1276
_cell_angle_beta     87.234
_cell_angle_gamma    82.868

_symmetry_space_group_name_H-M    "P 1"
_symmetry_int_tables_number       1

loop_
  _symmetry_equiv_pos_as_xyz
  'x, y, z'

loop_
  _atom_site_label
  _atom_site_occupancy
  _atom_site_fract_x
  _atom_site_fract_y
  _atom_site_fract_z
  _atom_site_thermal_displace_type
  _atom_site_B_iso_or_equiv
  _atom_site_type_symbol
  C1       1.0000 0.24851  0.61408  0.18078  Biso   1.000  C
  C2       1.0000 0.54324  0.33062  0.26519  Biso   1.000  C
  C3       1.0000 0.83797  0.13158  0.18078  Biso   1.000  C
  C4       1.0000 0.04324  0.77774  0.37097  Biso   1.000  C
  C5       1.0000 0.04324  0.61629  0.69386  Biso   1.000  C
  C6       1.0000 0.09308  0.83855  0.86717  Biso   1.000  C
  C7       1.0000 0.99340  0.22072  0.86717  Biso   1.000  C
