# generated using pymatgen
data_C
_symmetry_space_group_name_H-M   'P 1'
_cell_length_a   3.59901831
_cell_length_b   4.69164282
_cell_length_c   5.27903181
_cell_angle_alpha   92.50115045
_cell_angle_beta   83.58895495
_cell_angle_gamma   73.00360697
_symmetry_Int_Tables_number   1
_chemical_formula_structural   C
_chemical_formula_sum   C8
_cell_volume   84.43840866
_cell_formula_units_Z   8
loop_
 _symmetry_equiv_pos_site_id
 _symmetry_equiv_pos_as_xyz
  1  'x, y, z'
loop_
 _atom_site_type_symbol
 _atom_site_label
 _atom_site_symmetry_multiplicity
 _atom_site_fract_x
 _atom_site_fract_y
 _atom_site_fract_z
 _atom_site_occupancy
  C  C1  1  0.109231  0.608826  0.574406  1
  C  C2  1  0.190316  0.313828  0.473839  1
  C  C3  1  0.590130  0.044948  0.782528  1
  C  C4  1  0.989650  -0.091269  0.667561  1
  C  C5  1  0.533681  0.186675  0.034255  1
  C  C6  1  0.837322  0.276303  0.116673  1
  C  C7  1  0.188083  0.252515  0.208600  1
  C  C8  1  0.263865  0.078486  0.640599  1
