data_image0
_cell_length_a       3.72526
_cell_length_b       4.55235
_cell_length_c       4.67949
_cell_angle_alpha    81.3216
_cell_angle_beta     82.2857
_cell_angle_gamma    77.3017

_symmetry_space_group_name_H-M    "P 1"
_symmetry_int_tables_number       1

loop_
  _symmetry_equiv_pos_as_xyz
  'x, y, z'

loop_
  _atom_site_label
  _atom_site_occupancy
  _atom_site_fract_x
  _atom_site_fract_y
  _atom_site_fract_z
  _atom_site_thermal_displace_type
  _atom_site_B_iso_or_equiv
  _atom_site_type_symbol
  C1       1.0000 0.04218  0.64147  0.54470  Biso   1.000  C
  C2       1.0000 0.15069  0.36265  0.48290  Biso   1.000  C
  C3       1.0000 0.57583  0.02394  0.80472  Biso   1.000  C
  C4       1.0000 0.93701  0.88951  0.67408  Biso   1.000  C
  C5       1.0000 0.60168  0.18139  0.03336  Biso   1.000  C
  C6       1.0000 0.98095  0.20789  0.02653  Biso   1.000  C
  C7       1.0000 0.23065  0.27278  0.18705  Biso   1.000  C
  C8       1.0000 0.18329  0.09069  0.74512  Biso   1.000  C
