# generated using pymatgen
data_C
_symmetry_space_group_name_H-M   'P 1'
_cell_length_a   2.54899502
_cell_length_b   4.66763450
_cell_length_c   5.60877379
_cell_angle_alpha   86.79553867
_cell_angle_beta   87.57358886
_cell_angle_gamma   79.84946806
_symmetry_Int_Tables_number   1
_chemical_formula_structural   C
_chemical_formula_sum   C10
_cell_volume   65.54891722
_cell_formula_units_Z   10
loop_
 _symmetry_equiv_pos_site_id
 _symmetry_equiv_pos_as_xyz
  1  'x, y, z'
loop_
 _atom_site_type_symbol
 _atom_site_label
 _atom_site_symmetry_multiplicity
 _atom_site_fract_x
 _atom_site_fract_y
 _atom_site_fract_z
 _atom_site_occupancy
  C  C1  1  0.467816  -0.019602  0.838363  1
  C  C2  1  0.226847  0.165745  0.028304  1
  C  C3  1  0.077267  -0.002588  0.233056  1
  C  C4  1  0.488991  0.083762  0.594737  1
  C  C5  1  0.000002  0.093449  0.470130  1
  C  C6  1  0.109617  0.681409  0.236531  1
  C  C7  1  0.139709  0.563634  0.478161  1
  C  C8  1  0.633328  0.557210  0.603354  1
  C  C9  1  0.124941  0.518653  0.002751  1
  C  C10  1  0.597116  0.634482  0.865928  1
