# generated using pymatgen
data_C
_symmetry_space_group_name_H-M   'P 1'
_cell_length_a   2.50588162
_cell_length_b   5.51538571
_cell_length_c   6.73857924
_cell_angle_alpha   87.84953305
_cell_angle_beta   90.00000000
_cell_angle_gamma   90.00000000
_symmetry_Int_Tables_number   1
_chemical_formula_structural   C
_chemical_formula_sum   C12
_cell_volume   93.06766359
_cell_formula_units_Z   12
loop_
 _symmetry_equiv_pos_site_id
 _symmetry_equiv_pos_as_xyz
  1  'x, y, z'
loop_
 _atom_site_type_symbol
 _atom_site_label
 _atom_site_symmetry_multiplicity
 _atom_site_fract_x
 _atom_site_fract_y
 _atom_site_fract_z
 _atom_site_occupancy
  C  C1  1  0.451474  0.564551  0.823877  1
  C  C2  1  0.951474  0.521390  0.920563  1
  C  C3  1  0.951474  0.085651  0.561432  1
  C  C4  1  0.951474  0.826525  0.588335  1
  C  C5  1  0.451474  0.213368  0.536362  1
  C  C6  1  0.451474  0.464522  0.465243  1
  C  C7  1  0.451474  0.674040  0.612941  1
  C  C8  1  0.951474  0.164341  0.136251  1
  C  C9  1  0.951474  0.917461  0.179617  1
  C  C10  1  0.451474  0.798139  0.203732  1
  C  C11  1  0.951474  0.430688  0.136868  1
  C  C12  1  0.451474  0.527416  0.242349  1
