# generated using pymatgen
data_C
_symmetry_space_group_name_H-M   'P 1'
_cell_length_a   2.54037284
_cell_length_b   2.83391886
_cell_length_c   5.27884697
_cell_angle_alpha   76.75625667
_cell_angle_beta   87.72489956
_cell_angle_gamma   75.69585938
_symmetry_Int_Tables_number   1
_chemical_formula_structural   C
_chemical_formula_sum   C5
_cell_volume   35.84018682
_cell_formula_units_Z   5
loop_
 _symmetry_equiv_pos_site_id
 _symmetry_equiv_pos_as_xyz
  1  'x, y, z'
loop_
 _atom_site_type_symbol
 _atom_site_label
 _atom_site_symmetry_multiplicity
 _atom_site_fract_x
 _atom_site_fract_y
 _atom_site_fract_z
 _atom_site_occupancy
  C  C1  1  0.167387  0.269291  0.307774  1
  C  C2  1  0.676089  0.192666  0.434782  1
  C  C3  1  0.708564  0.044260  0.710563  1
  C  C4  1  0.201416  0.381963  0.040270  1
  C  C5  1  0.211417  -0.031977  0.872220  1
