# generated using pymatgen
data_C
_symmetry_space_group_name_H-M   'P 1'
_cell_length_a   2.55068288
_cell_length_b   2.54749040
_cell_length_c   11.62406494
_cell_angle_alpha   94.68388847
_cell_angle_beta   91.39173333
_cell_angle_gamma   120.73803614
_symmetry_Int_Tables_number   1
_chemical_formula_structural   C
_chemical_formula_sum   C11
_cell_volume   64.51088481
_cell_formula_units_Z   11
loop_
 _symmetry_equiv_pos_site_id
 _symmetry_equiv_pos_as_xyz
  1  'x, y, z'
loop_
 _atom_site_type_symbol
 _atom_site_label
 _atom_site_symmetry_multiplicity
 _atom_site_fract_x
 _atom_site_fract_y
 _atom_site_fract_z
 _atom_site_occupancy
  C  C1  1  0.421222  0.940409  0.549460  1
  C  C2  1  0.476377  0.014017  0.678422  1
  C  C3  1  0.882053  0.785034  0.857265  1
  C  C4  1  0.827589  0.707609  0.723805  1
  C  C5  1  0.098535  0.090623  0.387574  1
  C  C6  1  0.047316  0.016208  0.258857  1
  C  C7  1  0.306639  0.580769  0.080302  1
  C  C8  1  0.361730  0.656865  0.213414  1
  C  C9  1  0.566778  0.144859  0.902207  1
  C  C10  1  0.622067  0.220921  0.035505  1
  C  C11  1  0.849234  0.446377  0.453544  1
