# generated using pymatgen
data_C
_symmetry_space_group_name_H-M   'P 1'
_cell_length_a   4.64164820
_cell_length_b   5.33144558
_cell_length_c   5.55549845
_cell_angle_alpha   96.54910404
_cell_angle_beta   118.91869011
_cell_angle_gamma   112.32723405
_symmetry_Int_Tables_number   1
_chemical_formula_structural   C
_chemical_formula_sum   C12
_cell_volume   103.51519139
_cell_formula_units_Z   12
loop_
 _symmetry_equiv_pos_site_id
 _symmetry_equiv_pos_as_xyz
  1  'x, y, z'
loop_
 _atom_site_type_symbol
 _atom_site_label
 _atom_site_symmetry_multiplicity
 _atom_site_fract_x
 _atom_site_fract_y
 _atom_site_fract_z
 _atom_site_occupancy
  C  C1  1  0.938624  0.589632  0.183817  1
  C  C2  1  0.951496  0.852875  0.147696  1
  C  C3  1  0.223682  0.541524  0.388754  1
  C  C4  1  0.310774  0.120827  0.346998  1
  C  C5  1  0.649330  0.179935  0.615355  1
  C  C6  1  0.277635  0.578731  0.668466  1
  C  C7  1  0.293891  0.335219  0.996559  1
  C  C8  1  0.047551  0.365439  0.733939  1
  C  C9  1  0.612665  0.850376  0.903948  1
  C  C10  1  0.596777  0.102156  0.839943  1
  C  C11  1  0.592327  0.321558  0.004699  1
  C  C12  1  0.310479  0.360165  0.260386  1
