# generated using pymatgen
data_C
_symmetry_space_group_name_H-M   'P 1'
_cell_length_a   2.60825801
_cell_length_b   3.63445669
_cell_length_c   5.76143919
_cell_angle_alpha   71.61429892
_cell_angle_beta   83.48980765
_cell_angle_gamma   68.93259736
_symmetry_Int_Tables_number   1
_chemical_formula_structural   C
_chemical_formula_sum   C7
_cell_volume   48.36395536
_cell_formula_units_Z   7
loop_
 _symmetry_equiv_pos_site_id
 _symmetry_equiv_pos_as_xyz
  1  'x, y, z'
loop_
 _atom_site_type_symbol
 _atom_site_label
 _atom_site_symmetry_multiplicity
 _atom_site_fract_x
 _atom_site_fract_y
 _atom_site_fract_z
 _atom_site_occupancy
  C  C1  1  0.548584  -0.038925  0.767268  1
  C  C2  1  0.826597  0.560573  0.767268  1
  C  C3  1  0.187591  0.056049  0.176818  1
  C  C4  1  0.187591  0.184406  0.920107  1
  C  C5  1  0.687589  -0.017684  0.324285  1
  C  C6  1  0.502216  0.271340  0.492254  1
  C  C7  1  0.872965  0.525323  0.492254  1
