data_image0
_cell_length_a       2.61416
_cell_length_b       3.55117
_cell_length_c       5.78815
_cell_angle_alpha    72.1363
_cell_angle_beta     84.1171
_cell_angle_gamma    70.489

_symmetry_space_group_name_H-M    "P 1"
_symmetry_int_tables_number       1

loop_
  _symmetry_equiv_pos_as_xyz
  'x, y, z'

loop_
  _atom_site_label
  _atom_site_occupancy
  _atom_site_fract_x
  _atom_site_fract_y
  _atom_site_fract_z
  _atom_site_thermal_displace_type
  _atom_site_B_iso_or_equiv
  _atom_site_type_symbol
  C1       1.0000 0.53832  0.96416  0.75908  Biso   1.000  C
  C2       1.0000 0.83686  0.56568  0.75909  Biso   1.000  C
  C3       1.0000 0.18758  0.05687  0.17515  Biso   1.000  C
  C4       1.0000 0.18761  0.18467  0.91966  Biso   1.000  C
  C5       1.0000 0.68759  0.98349  0.32189  Biso   1.000  C
  C6       1.0000 0.49115  0.26003  0.50269  Biso   1.000  C
  C7       1.0000 0.88402  0.52617  0.50269  Biso   1.000  C
