# generated using pymatgen
data_C
_symmetry_space_group_name_H-M   'P 1'
_cell_length_a   2.53429558
_cell_length_b   6.70135672
_cell_length_c   7.10761902
_cell_angle_alpha   68.03206549
_cell_angle_beta   86.26406294
_cell_angle_gamma   83.66890377
_symmetry_Int_Tables_number   1
_chemical_formula_structural   C
_chemical_formula_sum   C15
_cell_volume   111.22572464
_cell_formula_units_Z   15
loop_
 _symmetry_equiv_pos_site_id
 _symmetry_equiv_pos_as_xyz
  1  'x, y, z'
loop_
 _atom_site_type_symbol
 _atom_site_label
 _atom_site_symmetry_multiplicity
 _atom_site_fract_x
 _atom_site_fract_y
 _atom_site_fract_z
 _atom_site_occupancy
  C  C1  1  0.301950  0.242979  0.173479  1
  C  C2  1  0.800946  0.306032  0.069193  1
  C  C3  1  0.654222  0.696048  0.312596  1
  C  C4  1  0.170085  0.706544  0.214845  1
  C  C5  1  0.660808  0.113954  0.829670  1
  C  C6  1  0.176201  0.011136  0.892604  1
  C  C7  1  0.738658  0.687115  0.925584  1
  C  C8  1  0.763326  0.495650  0.883742  1
  C  C9  1  0.588286  0.707973  0.509735  1
  C  C10  1  0.403835  0.918553  0.504138  1
  C  C11  1  0.679331  0.303828  0.650630  1
  C  C12  1  0.678830  0.505960  0.680405  1
  C  C13  1  0.757715  0.247950  0.474102  1
  C  C14  1  0.293490  0.167907  0.404538  1
  C  C15  1  0.205754  0.769867  0.987258  1
