# generated using pymatgen
data_C
_symmetry_space_group_name_H-M   'P 1'
_cell_length_a   2.54192222
_cell_length_b   4.47519548
_cell_length_c   6.70835997
_cell_angle_alpha   100.39522372
_cell_angle_beta   96.62310575
_cell_angle_gamma   92.07844953
_symmetry_Int_Tables_number   1
_chemical_formula_structural   C
_chemical_formula_sum   C12
_cell_volume   74.43080862
_cell_formula_units_Z   12
loop_
 _symmetry_equiv_pos_site_id
 _symmetry_equiv_pos_as_xyz
  1  'x, y, z'
loop_
 _atom_site_type_symbol
 _atom_site_label
 _atom_site_symmetry_multiplicity
 _atom_site_fract_x
 _atom_site_fract_y
 _atom_site_fract_z
 _atom_site_occupancy
  C  C1  1  0.522911  0.504054  0.542846  1
  C  C2  1  0.043989  0.356233  0.605771  1
  C  C3  1  0.540871  0.847946  0.608448  1
  C  C4  1  0.582990  0.945858  0.847295  1
  C  C5  1  0.107352  0.143663  0.897688  1
  C  C6  1  0.151371  0.424905  0.865241  1
  C  C7  1  0.371041  0.689024  0.973117  1
  C  C8  1  0.904269  0.269919  0.238215  1
  C  C9  1  0.424935  0.450864  0.281620  1
  C  C10  1  0.404392  0.763971  0.206753  1
  C  C11  1  0.928278  0.945800  0.288542  1
  C  C12  1  0.013609  -0.006424  0.526466  1
