# generated using pymatgen
data_C
_symmetry_space_group_name_H-M   'P 1'
_cell_length_a   2.75575654
_cell_length_b   4.66684930
_cell_length_c   4.78127185
_cell_angle_alpha   104.54762617
_cell_angle_beta   96.77146593
_cell_angle_gamma   104.19742316
_symmetry_Int_Tables_number   1
_chemical_formula_structural   C
_chemical_formula_sum   C8
_cell_volume   56.63543646
_cell_formula_units_Z   8
loop_
 _symmetry_equiv_pos_site_id
 _symmetry_equiv_pos_as_xyz
  1  'x, y, z'
loop_
 _atom_site_type_symbol
 _atom_site_label
 _atom_site_symmetry_multiplicity
 _atom_site_fract_x
 _atom_site_fract_y
 _atom_site_fract_z
 _atom_site_occupancy
  C  C1  1  0.430642  0.155100  0.221651  1
  C  C2  1  0.477426  0.027337  0.453864  1
  C  C3  1  0.512113  -0.000849  0.943097  1
  C  C4  1  0.359186  0.694678  0.750782  1
  C  C5  1  0.337323  0.450827  0.207914  1
  C  C6  1  0.368026  0.704282  0.449389  1
  C  C7  1  0.231229  0.421196  0.864391  1
  C  C8  1  0.637732  0.235186  0.767792  1
