data_image0
_cell_length_a       3.63751
_cell_length_b       4.74617
_cell_length_c       4.74601
_cell_angle_alpha    103.685
_cell_angle_beta     106.549
_cell_angle_gamma    107.08

_symmetry_space_group_name_H-M    "P 1"
_symmetry_int_tables_number       1

loop_
  _symmetry_equiv_pos_as_xyz
  'x, y, z'

loop_
  _atom_site_label
  _atom_site_occupancy
  _atom_site_fract_x
  _atom_site_fract_y
  _atom_site_fract_z
  _atom_site_thermal_displace_type
  _atom_site_B_iso_or_equiv
  _atom_site_type_symbol
  C1       1.0000 0.41996  0.15263  0.21629  Biso   1.000  C
  C2       1.0000 0.41845  0.01930  0.44843  Biso   1.000  C
  C3       1.0000 0.41924  0.99303  0.92531  Biso   1.000  C
  C4       1.0000 0.41849  0.70206  0.76570  Biso   1.000  C
  C5       1.0000 0.42059  0.46561  0.21200  Biso   1.000  C
  C6       1.0000 0.41783  0.70632  0.45272  Biso   1.000  C
  C7       1.0000 0.41993  0.46988  0.89902  Biso   1.000  C
  C8       1.0000 0.41918  0.17891  0.73941  Biso   1.000  C
