data_image0
_cell_length_a       3.20808
_cell_length_b       4.53084
_cell_length_c       4.69999
_cell_angle_alpha    88.2928
_cell_angle_beta     112.858
_cell_angle_gamma    107.48

_symmetry_space_group_name_H-M    "P 1"
_symmetry_int_tables_number       1

loop_
  _symmetry_equiv_pos_as_xyz
  'x, y, z'

loop_
  _atom_site_label
  _atom_site_occupancy
  _atom_site_fract_x
  _atom_site_fract_y
  _atom_site_fract_z
  _atom_site_thermal_displace_type
  _atom_site_B_iso_or_equiv
  _atom_site_type_symbol
  C1       1.0000 0.20793  0.35915  0.17298  Biso   1.000  C
  C2       1.0000 0.44941  0.60042  0.41434  Biso   1.000  C
  C3       1.0000 0.89633  0.04691  0.17782  Biso   1.000  C
  C4       1.0000 0.73475  0.88667  0.88678  Biso   1.000  C
  C5       1.0000 0.92258  0.07289  0.70053  Biso   1.000  C
  C6       1.0000 0.76101  0.91266  0.40949  Biso   1.000  C
  C7       1.0000 0.44527  0.59553  0.72661  Biso   1.000  C
  C8       1.0000 0.21207  0.36404  0.86071  Biso   1.000  C
