# generated using pymatgen
data_C
_symmetry_space_group_name_H-M   'P 1'
_cell_length_a   2.58811706
_cell_length_b   3.56762671
_cell_length_c   5.03097387
_cell_angle_alpha   73.51247293
_cell_angle_beta   75.51271824
_cell_angle_gamma   68.83999130
_symmetry_Int_Tables_number   1
_chemical_formula_structural   C
_chemical_formula_sum   C6
_cell_volume   40.96912802
_cell_formula_units_Z   6
loop_
 _symmetry_equiv_pos_site_id
 _symmetry_equiv_pos_as_xyz
  1  'x, y, z'
loop_
 _atom_site_type_symbol
 _atom_site_label
 _atom_site_symmetry_multiplicity
 _atom_site_fract_x
 _atom_site_fract_y
 _atom_site_fract_z
 _atom_site_occupancy
  C  C1  1  0.839608  0.403255  0.663724  1
  C  C2  1  0.603937  0.763166  0.773098  1
  C  C3  1  0.467982  0.199585  0.608140  1
  C  C4  1  0.822630  0.942154  0.158277  1
  C  C5  1  0.605154  0.280562  0.251497  1
  C  C6  1  0.461616  0.726165  0.091751  1
