# generated using pymatgen
data_C
_symmetry_space_group_name_H-M   'P 1'
_cell_length_a   3.54480028
_cell_length_b   3.63895224
_cell_length_c   7.44945734
_cell_angle_alpha   75.74845317
_cell_angle_beta   86.67011672
_cell_angle_gamma   79.35943927
_symmetry_Int_Tables_number   1
_chemical_formula_structural   C
_chemical_formula_sum   C11
_cell_volume   91.52635727
_cell_formula_units_Z   11
loop_
 _symmetry_equiv_pos_site_id
 _symmetry_equiv_pos_as_xyz
  1  'x, y, z'
loop_
 _atom_site_type_symbol
 _atom_site_label
 _atom_site_symmetry_multiplicity
 _atom_site_fract_x
 _atom_site_fract_y
 _atom_site_fract_z
 _atom_site_occupancy
  C  C1  1  0.978368  0.493106  0.675138  1
  C  C2  1  0.285613  0.652300  0.562296  1
  C  C3  1  0.672138  0.449847  0.561994  1
  C  C4  1  0.980112  0.391034  0.878976  1
  C  C5  1  0.062750  0.003155  -0.011542  1
  C  C6  1  0.898834  0.669964  -0.010633  1
  C  C7  1  0.362140  0.938963  0.129900  1
  C  C8  1  0.595752  0.594865  0.129129  1
  C  C9  1  0.162317  0.019104  0.429245  1
  C  C10  1  0.795749  0.214463  0.429183  1
  C  C11  1  0.480895  0.198940  0.266951  1
