data_image0
_cell_length_a       3.5618
_cell_length_b       3.67554
_cell_length_c       6.67384
_cell_angle_alpha    79.6295
_cell_angle_beta     80.8518
_cell_angle_gamma    83.3544

_symmetry_space_group_name_H-M    "P 1"
_symmetry_int_tables_number       1

loop_
  _symmetry_equiv_pos_as_xyz
  'x, y, z'

loop_
  _atom_site_label
  _atom_site_occupancy
  _atom_site_fract_x
  _atom_site_fract_y
  _atom_site_fract_z
  _atom_site_thermal_displace_type
  _atom_site_B_iso_or_equiv
  _atom_site_type_symbol
  C1       1.0000 0.97139  0.49909  0.67006  Biso   1.000  C
  C2       1.0000 0.26581  0.68734  0.55418  Biso   1.000  C
  C3       1.0000 0.65751  0.46986  0.55320  Biso   1.000  C
  C4       1.0000 0.03220  0.33954  0.88413  Biso   1.000  C
  C5       1.0000 0.09951  0.99734  0.99517  Biso   1.000  C
  C6       1.0000 0.92073  0.64578  0.00297  Biso   1.000  C
  C7       1.0000 0.33402  0.93714  0.17484  Biso   1.000  C
  C8       1.0000 0.58348  0.59964  0.14061  Biso   1.000  C
  C9       1.0000 0.15043  0.00485  0.38681  Biso   1.000  C
  C10      1.0000 0.76605  0.21639  0.41646  Biso   1.000  C
  C11      1.0000 0.49354  0.22879  0.26220  Biso   1.000  C
