# generated using pymatgen
data_C
_symmetry_space_group_name_H-M   'P 1'
_cell_length_a   2.50644097
_cell_length_b   4.14125256
_cell_length_c   8.20333160
_cell_angle_alpha   110.03286319
_cell_angle_beta   90.00000000
_cell_angle_gamma   90.00000000
_symmetry_Int_Tables_number   1
_chemical_formula_structural   C
_chemical_formula_sum   C9
_cell_volume   79.99715386
_cell_formula_units_Z   9
loop_
 _symmetry_equiv_pos_site_id
 _symmetry_equiv_pos_as_xyz
  1  'x, y, z'
loop_
 _atom_site_type_symbol
 _atom_site_label
 _atom_site_symmetry_multiplicity
 _atom_site_fract_x
 _atom_site_fract_y
 _atom_site_fract_z
 _atom_site_occupancy
  C  C1  1  0.919256  0.902471  0.123354  1
  C  C2  1  0.919256  0.146526  0.290686  1
  C  C3  1  0.919256  0.390581  0.458019  1
  C  C4  1  0.419256  0.785680  0.039692  1
  C  C5  1  0.419256  0.507373  0.541680  1
  C  C6  1  0.919256  -0.034018  0.760644  1
  C  C7  1  0.919256  0.327070  0.820729  1
  C  C8  1  0.419256  0.540132  0.853522  1
  C  C9  1  0.419256  0.752920  0.727851  1
