# generated using pymatgen
data_C
_symmetry_space_group_name_H-M   'P 1'
_cell_length_a   2.85224653
_cell_length_b   4.69884006
_cell_length_c   4.71809708
_cell_angle_alpha   117.63143998
_cell_angle_beta   98.36336283
_cell_angle_gamma   98.34162982
_symmetry_Int_Tables_number   1
_chemical_formula_structural   C
_chemical_formula_sum   C8
_cell_volume   53.77160252
_cell_formula_units_Z   8
loop_
 _symmetry_equiv_pos_site_id
 _symmetry_equiv_pos_as_xyz
  1  'x, y, z'
loop_
 _atom_site_type_symbol
 _atom_site_label
 _atom_site_symmetry_multiplicity
 _atom_site_fract_x
 _atom_site_fract_y
 _atom_site_fract_z
 _atom_site_occupancy
  C  C1  1  0.840632  0.450315  0.141564  1
  C  C2  1  0.893904  0.287148  0.821000  1
  C  C3  1  0.787327  0.771017  0.304831  1
  C  C4  1  0.016894  0.452047  0.653134  1
  C  C5  1  0.840586  0.280085  0.311938  1
  C  C6  1  0.664128  0.938771  0.139892  1
  C  C7  1  0.340542  0.760668  0.831370  1
  C  C8  1  0.840705  0.941744  0.650121  1
