# generated using pymatgen
data_C
_symmetry_space_group_name_H-M   'P 1'
_cell_length_a   2.51055267
_cell_length_b   5.53558296
_cell_length_c   6.28168599
_cell_angle_alpha   99.00156381
_cell_angle_beta   95.67234551
_cell_angle_gamma   97.51497460
_symmetry_Int_Tables_number   1
_chemical_formula_structural   C
_chemical_formula_sum   C11
_cell_volume   84.84632946
_cell_formula_units_Z   11
loop_
 _symmetry_equiv_pos_site_id
 _symmetry_equiv_pos_as_xyz
  1  'x, y, z'
loop_
 _atom_site_type_symbol
 _atom_site_label
 _atom_site_symmetry_multiplicity
 _atom_site_fract_x
 _atom_site_fract_y
 _atom_site_fract_z
 _atom_site_occupancy
  C  C1  1  0.596637  0.493311  0.056992  1
  C  C2  1  0.078058  0.367898  0.084943  1
  C  C3  1  0.552437  0.719450  0.968188  1
  C  C4  1  0.539573  0.963481  0.086047  1
  C  C5  1  0.087792  0.111231  0.160522  1
  C  C6  1  0.088439  0.978089  0.539715  1
  C  C7  1  0.574308  0.895101  0.609995  1
  C  C8  1  0.741260  0.328821  0.481421  1
  C  C9  1  0.912548  0.536030  0.643151  1
  C  C10  1  0.174198  0.187307  0.411835  1
  C  C11  1  0.481718  0.673079  0.721654  1
