data_image0
_cell_length_a       3.40319
_cell_length_b       3.40319
_cell_length_c       4.77657
_cell_angle_alpha    100.704
_cell_angle_beta     100.704
_cell_angle_gamma    86.1127

_symmetry_space_group_name_H-M    "P 1"
_symmetry_int_tables_number       1

loop_
  _symmetry_equiv_pos_as_xyz
  'x, y, z'

loop_
  _atom_site_label
  _atom_site_occupancy
  _atom_site_fract_x
  _atom_site_fract_y
  _atom_site_fract_z
  _atom_site_thermal_displace_type
  _atom_site_B_iso_or_equiv
  _atom_site_type_symbol
  C1       1.0000 0.54286  0.78995  0.70759  Biso   1.000  C
  C2       1.0000 0.67991  0.53318  0.47020  Biso   1.000  C
  C3       1.0000 0.50444  0.55751  0.16492  Biso   1.000  C
  C4       1.0000 0.71833  0.76562  0.01288  Biso   1.000  C
  C5       1.0000 0.23977  0.09304  0.70759  Biso   1.000  C
  C6       1.0000 0.98300  0.23009  0.47020  Biso   1.000  C
  C7       1.0000 0.00733  0.05462  0.16492  Biso   1.000  C
  C8       1.0000 0.21544  0.26851  0.01288  Biso   1.000  C
