# generated using pymatgen
data_C
_symmetry_space_group_name_H-M   'P 1'
_cell_length_a   2.50544580
_cell_length_b   5.48002188
_cell_length_c   7.70606098
_cell_angle_alpha   123.80703603
_cell_angle_beta   90.00000000
_cell_angle_gamma   90.00000000
_symmetry_Int_Tables_number   1
_chemical_formula_structural   C
_chemical_formula_sum   C9
_cell_volume   87.91377827
_cell_formula_units_Z   9
loop_
 _symmetry_equiv_pos_site_id
 _symmetry_equiv_pos_as_xyz
  1  'x, y, z'
loop_
 _atom_site_type_symbol
 _atom_site_label
 _atom_site_symmetry_multiplicity
 _atom_site_fract_x
 _atom_site_fract_y
 _atom_site_fract_z
 _atom_site_occupancy
  C  C1  1  0.470615  0.800191  0.020126  1
  C  C2  1  0.970614  -0.071260  0.118768  1
  C  C3  1  0.970614  0.195253  0.320836  1
  C  C4  1  0.470615  0.323801  0.419477  1
  C  C5  1  0.970614  0.061996  0.719802  1
  C  C6  1  0.970614  0.774167  0.666906  1
  C  C7  1  0.970614  0.349826  0.772697  1
  C  C8  1  0.470615  0.603457  0.637389  1
  C  C9  1  0.470615  0.520536  0.802214  1
