data_image0
_cell_length_a       2.41546
_cell_length_b       3.62245
_cell_length_c       6.58275
_cell_angle_alpha    97.9915
_cell_angle_beta     100.572
_cell_angle_gamma    109.475

_symmetry_space_group_name_H-M    "P 1"
_symmetry_int_tables_number       1

loop_
  _symmetry_equiv_pos_as_xyz
  'x, y, z'

loop_
  _atom_site_label
  _atom_site_occupancy
  _atom_site_fract_x
  _atom_site_fract_y
  _atom_site_fract_z
  _atom_site_thermal_displace_type
  _atom_site_B_iso_or_equiv
  _atom_site_type_symbol
  C1       1.0000 0.04035  0.52709  0.96458  Biso   1.000  C
  C2       1.0000 0.28191  0.96709  0.00769  Biso   1.000  C
  C3       1.0000 0.38075  0.29433  0.87814  Biso   1.000  C
  C4       1.0000 0.14460  0.50198  0.19819  Biso   1.000  C
  C5       1.0000 0.90290  0.06334  0.15344  Biso   1.000  C
  C6       1.0000 0.96121  0.81818  0.51522  Biso   1.000  C
  C7       1.0000 0.81634  0.45583  0.58783  Biso   1.000  C
  C8       1.0000 0.23941  0.25110  0.63870  Biso   1.000  C
  C9       1.0000 0.80705  0.74020  0.28488  Biso   1.000  C
