# generated using pymatgen
data_C
_symmetry_space_group_name_H-M   'P 1'
_cell_length_a   2.58941246
_cell_length_b   4.57769760
_cell_length_c   5.08450576
_cell_angle_alpha   89.88054635
_cell_angle_beta   84.76095709
_cell_angle_gamma   72.26149814
_symmetry_Int_Tables_number   1
_chemical_formula_structural   C
_chemical_formula_sum   C9
_cell_volume   57.14318035
_cell_formula_units_Z   9
loop_
 _symmetry_equiv_pos_site_id
 _symmetry_equiv_pos_as_xyz
  1  'x, y, z'
loop_
 _atom_site_type_symbol
 _atom_site_label
 _atom_site_symmetry_multiplicity
 _atom_site_fract_x
 _atom_site_fract_y
 _atom_site_fract_z
 _atom_site_occupancy
  C  C1  1  0.894419  0.473708  0.844677  1
  C  C2  1  0.808128  0.660216  0.068127  1
  C  C3  1  0.177380  0.168342  0.874604  1
  C  C4  1  0.482384  0.004581  0.651041  1
  C  C5  1  0.243167  0.741983  0.196036  1
  C  C6  1  0.744371  0.643873  0.600198  1
  C  C7  1  0.315911  0.554190  0.444320  1
  C  C8  1  0.503344  0.197419  0.374035  1
  C  C9  1  0.089201  0.089659  0.216278  1
