data_image0
_cell_length_a       2.57275
_cell_length_b       4.57072
_cell_length_c       5.02965
_cell_angle_alpha    86.6536
_cell_angle_beta     80.7865
_cell_angle_gamma    73.9658

_symmetry_space_group_name_H-M    "P 1"
_symmetry_int_tables_number       1

loop_
  _symmetry_equiv_pos_as_xyz
  'x, y, z'

loop_
  _atom_site_label
  _atom_site_occupancy
  _atom_site_fract_x
  _atom_site_fract_y
  _atom_site_fract_z
  _atom_site_thermal_displace_type
  _atom_site_B_iso_or_equiv
  _atom_site_type_symbol
  C1       1.0000 0.90308  0.47076  0.85179  Biso   1.000  C
  C2       1.0000 0.83590  0.66820  0.06072  Biso   1.000  C
  C3       1.0000 0.18368  0.16889  0.88529  Biso   1.000  C
  C4       1.0000 0.46933  0.99686  0.64558  Biso   1.000  C
  C5       1.0000 0.26257  0.74862  0.18922  Biso   1.000  C
  C6       1.0000 0.71096  0.64441  0.60668  Biso   1.000  C
  C7       1.0000 0.30676  0.54860  0.44672  Biso   1.000  C
  C8       1.0000 0.48951  0.19343  0.37639  Biso   1.000  C
  C9       1.0000 0.09652  0.09420  0.20693  Biso   1.000  C
