# generated using pymatgen
data_C
_symmetry_space_group_name_H-M   'P 1'
_cell_length_a   2.53582606
_cell_length_b   3.71706060
_cell_length_c   4.72761169
_cell_angle_alpha   112.54024653
_cell_angle_beta   84.25893513
_cell_angle_gamma   112.24229283
_symmetry_Int_Tables_number   1
_chemical_formula_structural   C
_chemical_formula_sum   C6
_cell_volume   38.04212399
_cell_formula_units_Z   6
loop_
 _symmetry_equiv_pos_site_id
 _symmetry_equiv_pos_as_xyz
  1  'x, y, z'
loop_
 _atom_site_type_symbol
 _atom_site_label
 _atom_site_symmetry_multiplicity
 _atom_site_fract_x
 _atom_site_fract_y
 _atom_site_fract_z
 _atom_site_occupancy
  C  C1  1  0.902219  0.840721  0.176269  1
  C  C2  1  0.269844  0.588572  0.171196  1
  C  C3  1  0.929267  0.859358  0.822101  1
  C  C4  1  0.199947  0.233239  0.840242  1
  C  C5  1  0.613211  0.428477  0.587586  1
  C  C6  1  0.110157  0.326326  0.379362  1
