# generated using pymatgen
data_C
_symmetry_space_group_name_H-M   'P 1'
_cell_length_a   3.55406464
_cell_length_b   5.19794126
_cell_length_c   5.66468707
_cell_angle_alpha   92.44685758
_cell_angle_beta   104.89463154
_cell_angle_gamma   104.07166550
_symmetry_Int_Tables_number   1
_chemical_formula_structural   C
_chemical_formula_sum   C12
_cell_volume   97.47792816
_cell_formula_units_Z   12
loop_
 _symmetry_equiv_pos_site_id
 _symmetry_equiv_pos_as_xyz
  1  'x, y, z'
loop_
 _atom_site_type_symbol
 _atom_site_label
 _atom_site_symmetry_multiplicity
 _atom_site_fract_x
 _atom_site_fract_y
 _atom_site_fract_z
 _atom_site_occupancy
  C  C1  1  0.630678  0.875158  0.790780  1
  C  C2  1  0.564944  0.743985  0.559449  1
  C  C3  1  0.510090  0.468634  0.520604  1
  C  C4  1  0.345837  0.894625  0.921372  1
  C  C5  1  0.610992  0.893529  0.357970  1
  C  C6  1  0.370944  0.747904  0.126018  1
  C  C7  1  0.801487  0.330017  0.613161  1
  C  C8  1  0.038717  0.032617  0.879859  1
  C  C9  1  0.032710  0.305115  0.860915  1
  C  C10  1  0.163532  0.465541  0.093765  1
  C  C11  1  0.854818  0.169086  0.408263  1
  C  C12  1  0.162972  0.336073  0.318412  1
