data_image0
_cell_length_a       4.72529
_cell_length_b       3.569
_cell_length_c       4.74659
_cell_angle_alpha    110.308
_cell_angle_beta     88.6148
_cell_angle_gamma    111.844

_symmetry_space_group_name_H-M    "P 1"
_symmetry_int_tables_number       1

loop_
  _symmetry_equiv_pos_as_xyz
  'x, y, z'

loop_
  _atom_site_label
  _atom_site_occupancy
  _atom_site_fract_x
  _atom_site_fract_y
  _atom_site_fract_z
  _atom_site_thermal_displace_type
  _atom_site_B_iso_or_equiv
  _atom_site_type_symbol
  C1       1.0000 0.66343  0.44420  0.24959  Biso   1.000  C
  C2       1.0000 0.42234  0.20232  0.00802  Biso   1.000  C
  C3       1.0000 0.97634  0.75724  0.24534  Biso   1.000  C
  C4       1.0000 0.10943  0.88928  0.01227  Biso   1.000  C
  C5       1.0000 0.94994  0.73000  0.72182  Biso   1.000  C
  C6       1.0000 0.42665  0.20665  0.69517  Biso   1.000  C
  C7       1.0000 0.65911  0.43986  0.56244  Biso   1.000  C
  C8       1.0000 0.13583  0.91652  0.53579  Biso   1.000  C
