# generated using pymatgen
data_C
_symmetry_space_group_name_H-M   'P 1'
_cell_length_a   3.63111304
_cell_length_b   3.63314604
_cell_length_c   4.73437120
_cell_angle_alpha   101.90946443
_cell_angle_beta   95.72135960
_cell_angle_gamma   100.35235069
_symmetry_Int_Tables_number   1
_chemical_formula_structural   C
_chemical_formula_sum   C8
_cell_volume   59.50826331
_cell_formula_units_Z   8
loop_
 _symmetry_equiv_pos_site_id
 _symmetry_equiv_pos_as_xyz
  1  'x, y, z'
loop_
 _atom_site_type_symbol
 _atom_site_label
 _atom_site_symmetry_multiplicity
 _atom_site_fract_x
 _atom_site_fract_y
 _atom_site_fract_z
 _atom_site_occupancy
  C  C1  1  0.704071  0.413890  0.242898  1
  C  C2  1  0.442186  0.184432  0.003654  1
  C  C3  1  0.959085  0.773547  0.246776  1
  C  C4  1  0.126821  0.882346  0.016551  1
  C  C5  1  0.923646  0.738763  0.729360  1
  C  C6  1  0.417023  0.221798  0.696986  1
  C  C7  1  0.754175  0.331077  0.551474  1
  C  C8  1  0.016070  0.040213  0.542731  1
