# generated using pymatgen
data_C
_symmetry_space_group_name_H-M   'P 1'
_cell_length_a   3.47689388
_cell_length_b   4.00575786
_cell_length_c   4.61215581
_cell_angle_alpha   90.00000000
_cell_angle_beta   90.00000000
_cell_angle_gamma   103.53838920
_symmetry_Int_Tables_number   1
_chemical_formula_structural   C
_chemical_formula_sum   C8
_cell_volume   62.45132445
_cell_formula_units_Z   8
loop_
 _symmetry_equiv_pos_site_id
 _symmetry_equiv_pos_as_xyz
  1  'x, y, z'
loop_
 _atom_site_type_symbol
 _atom_site_label
 _atom_site_symmetry_multiplicity
 _atom_site_fract_x
 _atom_site_fract_y
 _atom_site_fract_z
 _atom_site_occupancy
  C  C1  1  0.549422  0.736658  0.621052  1
  C  C2  1  0.221062  0.761648  0.431126  1
  C  C3  1  0.675587  0.421073  0.061069  1
  C  C4  1  0.301055  0.303858  0.200518  1
  C  C5  1  0.130112  0.080502  0.431126  1
  C  C6  1  0.801751  0.105491  0.621052  1
  C  C7  1  0.050119  0.538292  0.200518  1
  C  C8  1  0.675587  0.421073  0.745088  1
