# generated using pymatgen
data_C
_symmetry_space_group_name_H-M   'P 1'
_cell_length_a   2.55147315
_cell_length_b   2.85253860
_cell_length_c   5.26138993
_cell_angle_alpha   76.72837385
_cell_angle_beta   87.75795481
_cell_angle_gamma   75.31901224
_symmetry_Int_Tables_number   1
_chemical_formula_structural   C
_chemical_formula_sum   C5
_cell_volume   36.04640527
_cell_formula_units_Z   5
loop_
 _symmetry_equiv_pos_site_id
 _symmetry_equiv_pos_as_xyz
  1  'x, y, z'
loop_
 _atom_site_type_symbol
 _atom_site_label
 _atom_site_symmetry_multiplicity
 _atom_site_fract_x
 _atom_site_fract_y
 _atom_site_fract_z
 _atom_site_occupancy
  C  C1  1  0.178362  -0.029497  0.356047  1
  C  C2  1  0.669803  0.047860  0.229979  1
  C  C3  1  0.635547  0.198202  -0.046778  1
  C  C4  1  0.143581  0.856631  0.624178  1
  C  C5  1  0.133028  0.273607  0.791453  1
