# generated using pymatgen
data_C
_symmetry_space_group_name_H-M   'P 1'
_cell_length_a   3.58281853
_cell_length_b   3.58281853
_cell_length_c   4.28156692
_cell_angle_alpha   90.00000000
_cell_angle_beta   90.00000000
_cell_angle_gamma   115.23392629
_symmetry_Int_Tables_number   1
_chemical_formula_structural   C
_chemical_formula_sum   C6
_cell_volume   49.71607506
_cell_formula_units_Z   6
loop_
 _symmetry_equiv_pos_site_id
 _symmetry_equiv_pos_as_xyz
  1  'x, y, z'
loop_
 _atom_site_type_symbol
 _atom_site_label
 _atom_site_symmetry_multiplicity
 _atom_site_fract_x
 _atom_site_fract_y
 _atom_site_fract_z
 _atom_site_occupancy
  C  C1  1  0.025516  0.540373  0.572779  1
  C  C2  1  0.844350  0.105185  0.572779  1
  C  C3  1  0.934932  0.822780  0.057900  1
  C  C4  1  0.934932  0.822780  0.383404  1
  C  C5  1  0.217338  0.732195  0.868525  1
  C  C6  1  0.652526  0.913362  0.868525  1
