# generated using pymatgen
data_C
_symmetry_space_group_name_H-M   'P 1'
_cell_length_a   2.81023084
_cell_length_b   5.28495391
_cell_length_c   6.66454300
_cell_angle_alpha   68.24787189
_cell_angle_beta   83.24205016
_cell_angle_gamma   87.84269406
_symmetry_Int_Tables_number   1
_chemical_formula_structural   C
_chemical_formula_sum   C11
_cell_volume   91.29285258
_cell_formula_units_Z   11
loop_
 _symmetry_equiv_pos_site_id
 _symmetry_equiv_pos_as_xyz
  1  'x, y, z'
loop_
 _atom_site_type_symbol
 _atom_site_label
 _atom_site_symmetry_multiplicity
 _atom_site_fract_x
 _atom_site_fract_y
 _atom_site_fract_z
 _atom_site_occupancy
  C  C1  1  0.451044  0.717375  0.990596  1
  C  C2  1  0.402299  0.639486  0.216583  1
  C  C3  1  0.491920  0.002162  0.863183  1
  C  C4  1  0.473549  0.509080  0.896077  1
  C  C5  1  -0.015796  0.408928  0.860804  1
  C  C6  1  0.693558  0.715098  0.346928  1
  C  C7  1  0.642604  0.928268  0.425798  1
  C  C8  1  0.062475  0.240248  0.540475  1
  C  C9  1  0.030090  0.500142  0.385166  1
  C  C10  1  0.119501  0.020083  0.462347  1
  C  C11  1  0.008269  0.161672  0.788071  1
