# generated using pymatgen
data_C
_symmetry_space_group_name_H-M   'P 1'
_cell_length_a   2.57116805
_cell_length_b   3.88722095
_cell_length_c   5.11863168
_cell_angle_alpha   90.00000000
_cell_angle_beta   90.00000000
_cell_angle_gamma   90.00000000
_symmetry_Int_Tables_number   1
_chemical_formula_structural   C
_chemical_formula_sum   C8
_cell_volume   51.15917942
_cell_formula_units_Z   8
loop_
 _symmetry_equiv_pos_site_id
 _symmetry_equiv_pos_as_xyz
  1  'x, y, z'
loop_
 _atom_site_type_symbol
 _atom_site_label
 _atom_site_symmetry_multiplicity
 _atom_site_fract_x
 _atom_site_fract_y
 _atom_site_fract_z
 _atom_site_occupancy
  C  C1  1  0.851002  0.371638  -0.023264  1
  C  C2  1  0.851002  0.759877  -0.023264  1
  C  C3  1  0.851002  0.065758  0.187970  1
  C  C4  1  0.351000  0.065758  0.351807  1
  C  C5  1  0.351000  0.749798  0.539595  1
  C  C6  1  0.351000  0.381717  0.539595  1
  C  C7  1  0.351000  0.870509  0.821382  1
  C  C8  1  0.351000  0.261007  0.821382  1
