# generated using pymatgen
data_C
_symmetry_space_group_name_H-M   'P 1'
_cell_length_a   2.50665219
_cell_length_b   5.32319329
_cell_length_c   7.67254697
_cell_angle_alpha   121.92935759
_cell_angle_beta   90.00000000
_cell_angle_gamma   90.00000000
_symmetry_Int_Tables_number   1
_chemical_formula_structural   C
_chemical_formula_sum   C9
_cell_volume   86.88813723
_cell_formula_units_Z   9
loop_
 _symmetry_equiv_pos_site_id
 _symmetry_equiv_pos_as_xyz
  1  'x, y, z'
loop_
 _atom_site_type_symbol
 _atom_site_label
 _atom_site_symmetry_multiplicity
 _atom_site_fract_x
 _atom_site_fract_y
 _atom_site_fract_z
 _atom_site_occupancy
  C  C1  1  0.950619  0.231824  0.737316  1
  C  C2  1  0.950619  -0.065315  0.686006  1
  C  C3  1  0.450621  0.787107  0.655473  1
  C  C4  1  0.450621  0.401719  0.756314  1
  C  C5  1  0.950619  0.089060  0.246811  1
  C  C6  1  0.950619  0.322905  0.450893  1
  C  C7  1  0.950619  0.822519  0.056345  1
  C  C8  1  0.450621  0.691036  -0.037917  1
  C  C9  1  0.450621  0.458480  0.574670  1
