# generated using pymatgen
data_C
_symmetry_space_group_name_H-M   'P 1'
_cell_length_a   2.49328360
_cell_length_b   4.25889407
_cell_length_c   5.25138893
_cell_angle_alpha   100.79306460
_cell_angle_beta   103.64873673
_cell_angle_gamma   90.03595038
_symmetry_Int_Tables_number   1
_chemical_formula_structural   C
_chemical_formula_sum   C8
_cell_volume   53.17057824
_cell_formula_units_Z   8
loop_
 _symmetry_equiv_pos_site_id
 _symmetry_equiv_pos_as_xyz
  1  'x, y, z'
loop_
 _atom_site_type_symbol
 _atom_site_label
 _atom_site_symmetry_multiplicity
 _atom_site_fract_x
 _atom_site_fract_y
 _atom_site_fract_z
 _atom_site_occupancy
  C  C1  1  0.754902  0.726279  0.781630  1
  C  C2  1  0.208672  0.567218  0.688999  1
  C  C3  1  0.172629  0.220102  0.618923  1
  C  C4  1  0.626400  0.061040  0.526294  1
  C  C5  1  0.939278  0.470968  0.151075  1
  C  C6  1  0.442024  0.316351  0.156848  1
  C  C7  1  0.469785  -0.018131  0.212378  1
  C  C8  1  0.911516  0.805449  0.095545  1
