# generated using pymatgen
data_C
_symmetry_space_group_name_H-M   'P 1'
_cell_length_a   3.61501865
_cell_length_b   3.57873623
_cell_length_c   4.81373251
_cell_angle_alpha   105.88138724
_cell_angle_beta   108.73288435
_cell_angle_gamma   96.17992268
_symmetry_Int_Tables_number   1
_chemical_formula_structural   C
_chemical_formula_sum   C7
_cell_volume   55.40363099
_cell_formula_units_Z   7
loop_
 _symmetry_equiv_pos_site_id
 _symmetry_equiv_pos_as_xyz
  1  'x, y, z'
loop_
 _atom_site_type_symbol
 _atom_site_label
 _atom_site_symmetry_multiplicity
 _atom_site_fract_x
 _atom_site_fract_y
 _atom_site_fract_z
 _atom_site_occupancy
  C  C1  1  0.466725  0.650185  0.571825  1
  C  C2  1  0.683328  0.742459  0.913180  1
  C  C3  1  0.204588  0.226383  0.397568  1
  C  C4  1  0.878327  0.152432  0.095825  1
  C  C5  1  0.689232  0.483108  0.092509  1
  C  C6  1  0.164836  0.920184  0.529462  1
  C  C7  1  0.753926  0.705816  0.415021  1
