data_image0
_cell_length_a       3.42861
_cell_length_b       3.60977
_cell_length_c       4.89477
_cell_angle_alpha    109.263
_cell_angle_beta     110.403
_cell_angle_gamma    92.8954

_symmetry_space_group_name_H-M    "P 1"
_symmetry_int_tables_number       1

loop_
  _symmetry_equiv_pos_as_xyz
  'x, y, z'

loop_
  _atom_site_label
  _atom_site_occupancy
  _atom_site_fract_x
  _atom_site_fract_y
  _atom_site_fract_z
  _atom_site_thermal_displace_type
  _atom_site_B_iso_or_equiv
  _atom_site_type_symbol
  C1       1.0000 0.45559  0.63359  0.57290  Biso   1.000  C
  C2       1.0000 0.69011  0.79410  0.91695  Biso   1.000  C
  C3       1.0000 0.09501  0.26713  0.43382  Biso   1.000  C
  C4       1.0000 0.89488  0.17568  0.08501  Biso   1.000  C
  C5       1.0000 0.81538  0.56811  0.11508  Biso   1.000  C
  C6       1.0000 0.11364  0.86320  0.45394  Biso   1.000  C
  C7       1.0000 0.77636  0.57876  0.43771  Biso   1.000  C
