# generated using pymatgen
data_C
_symmetry_space_group_name_H-M   'P 1'
_cell_length_a   3.50278085
_cell_length_b   6.12865808
_cell_length_c   6.42028833
_cell_angle_alpha   96.76420417
_cell_angle_beta   89.07618299
_cell_angle_gamma   127.93877690
_symmetry_Int_Tables_number   1
_chemical_formula_structural   C
_chemical_formula_sum   C13
_cell_volume   107.66359356
_cell_formula_units_Z   13
loop_
 _symmetry_equiv_pos_site_id
 _symmetry_equiv_pos_as_xyz
  1  'x, y, z'
loop_
 _atom_site_type_symbol
 _atom_site_label
 _atom_site_symmetry_multiplicity
 _atom_site_fract_x
 _atom_site_fract_y
 _atom_site_fract_z
 _atom_site_occupancy
  C  C1  1  0.213576  0.493225  0.205574  1
  C  C2  1  -0.016687  0.262949  0.316643  1
  C  C3  1  0.482436  0.765039  0.322485  1
  C  C4  1  0.596625  0.808913  0.545635  1
  C  C5  1  0.802554  0.079783  0.656248  1
  C  C6  1  0.095554  0.304964  0.534297  1
  C  C7  1  0.476193  0.575872  0.637212  1
  C  C8  1  0.578866  0.576753  0.851083  1
  C  C9  1  0.438761  -0.054456  0.006446  1
  C  C10  1  0.625853  -0.007798  0.216214  1
  C  C11  1  0.748243  0.150193  0.872061  1
  C  C12  1  0.124150  0.456080  0.971158  1
  C  C13  1  0.022053  0.661587  0.937215  1
