# generated using pymatgen
data_C
_symmetry_space_group_name_H-M   'P 1'
_cell_length_a   3.78697880
_cell_length_b   4.83666054
_cell_length_c   5.13427116
_cell_angle_alpha   61.75823124
_cell_angle_beta   76.03427075
_cell_angle_gamma   81.54731277
_symmetry_Int_Tables_number   1
_chemical_formula_structural   C
_chemical_formula_sum   C10
_cell_volume   80.33817165
_cell_formula_units_Z   10
loop_
 _symmetry_equiv_pos_site_id
 _symmetry_equiv_pos_as_xyz
  1  'x, y, z'
loop_
 _atom_site_type_symbol
 _atom_site_label
 _atom_site_symmetry_multiplicity
 _atom_site_fract_x
 _atom_site_fract_y
 _atom_site_fract_z
 _atom_site_occupancy
  C  C1  1  0.698359  0.040908  0.080546  1
  C  C2  1  0.584401  0.837069  -0.002768  1
  C  C3  1  0.295708  0.812631  0.632758  1
  C  C4  1  0.967185  0.925671  0.522455  1
  C  C5  1  0.973939  0.951898  0.239227  1
  C  C6  1  0.528485  0.340690  0.003876  1
  C  C7  1  0.415569  0.492080  0.715797  1
  C  C8  1  0.522443  0.506391  0.180966  1
  C  C9  1  0.487687  0.347418  0.513569  1
  C  C10  1  0.572581  0.989029  0.665505  1
