# generated using pymatgen
data_C
_symmetry_space_group_name_H-M   'P 1'
_cell_length_a   3.50920436
_cell_length_b   3.71111462
_cell_length_c   4.79059101
_cell_angle_alpha   67.21130454
_cell_angle_beta   84.18063796
_cell_angle_gamma   74.82486308
_symmetry_Int_Tables_number   1
_chemical_formula_structural   C
_chemical_formula_sum   C7
_cell_volume   55.51246144
_cell_formula_units_Z   7
loop_
 _symmetry_equiv_pos_site_id
 _symmetry_equiv_pos_as_xyz
  1  'x, y, z'
loop_
 _atom_site_type_symbol
 _atom_site_label
 _atom_site_symmetry_multiplicity
 _atom_site_fract_x
 _atom_site_fract_y
 _atom_site_fract_z
 _atom_site_occupancy
  C  C1  1  0.705233  0.370927  0.121924  1
  C  C2  1  0.836112  0.704351  0.121924  1
  C  C3  1  0.066657  0.347379  0.673304  1
  C  C4  1  0.474688  0.176516  0.673304  1
  C  C5  1  0.661618  0.076739  0.425811  1
  C  C6  1  0.879728  0.694650  0.425811  1
  C  C7  1  0.770674  0.151355  0.894489  1
