# generated using pymatgen
data_C
_symmetry_space_group_name_H-M   'P 1'
_cell_length_a   3.63090371
_cell_length_b   3.92794157
_cell_length_c   5.66352922
_cell_angle_alpha   86.38784218
_cell_angle_beta   70.14370165
_cell_angle_gamma   85.14974372
_symmetry_Int_Tables_number   1
_chemical_formula_structural   C
_chemical_formula_sum   C10
_cell_volume   75.64824797
_cell_formula_units_Z   10
loop_
 _symmetry_equiv_pos_site_id
 _symmetry_equiv_pos_as_xyz
  1  'x, y, z'
loop_
 _atom_site_type_symbol
 _atom_site_label
 _atom_site_symmetry_multiplicity
 _atom_site_fract_x
 _atom_site_fract_y
 _atom_site_fract_z
 _atom_site_occupancy
  C  C1  1  0.407625  0.293912  0.360793  1
  C  C2  1  0.334451  0.676297  0.334333  1
  C  C3  1  0.593489  0.277625  0.568915  1
  C  C4  1  0.964085  0.150704  0.535595  1
  C  C5  1  0.062815  0.805131  0.569979  1
  C  C6  1  0.934225  0.898720  0.009192  1
  C  C7  1  0.242442  0.107559  0.004459  1
  C  C8  1  0.315360  0.366966  0.810273  1
  C  C9  1  0.055809  0.662907  0.810035  1
  C  C10  1  0.512906  -0.007773  0.158871  1
