data_image0
_cell_length_a       3.53725
_cell_length_b       3.88658
_cell_length_c       5.28374
_cell_angle_alpha    88.3631
_cell_angle_beta     81.5405
_cell_angle_gamma    74.2708

_symmetry_space_group_name_H-M    "P 1"
_symmetry_int_tables_number       1

loop_
  _symmetry_equiv_pos_as_xyz
  'x, y, z'

loop_
  _atom_site_label
  _atom_site_occupancy
  _atom_site_fract_x
  _atom_site_fract_y
  _atom_site_fract_z
  _atom_site_thermal_displace_type
  _atom_site_B_iso_or_equiv
  _atom_site_type_symbol
  C1       1.0000 0.37580  0.29895  0.35112  Biso   1.000  C
  C2       1.0000 0.22522  0.70876  0.30179  Biso   1.000  C
  C3       1.0000 0.65031  0.22027  0.56306  Biso   1.000  C
  C4       1.0000 0.05358  0.25243  0.56111  Biso   1.000  C
  C5       1.0000 0.00981  0.88783  0.56963  Biso   1.000  C
  C6       1.0000 0.93531  0.84599  0.09170  Biso   1.000  C
  C7       1.0000 0.25988  0.02285  0.95591  Biso   1.000  C
  C8       1.0000 0.27872  0.31474  0.77043  Biso   1.000  C
  C9       1.0000 0.13928  0.71285  0.82840  Biso   1.000  C
  C10      1.0000 0.49530  0.96739  0.16930  Biso   1.000  C
