# generated using pymatgen
data_C
_symmetry_space_group_name_H-M   'P 1'
_cell_length_a   2.50874574
_cell_length_b   4.36767399
_cell_length_c   5.22010155
_cell_angle_alpha   90.00000000
_cell_angle_beta   109.05538855
_cell_angle_gamma   90.00000000
_symmetry_Int_Tables_number   1
_chemical_formula_structural   C
_chemical_formula_sum   C8
_cell_volume   54.06436317
_cell_formula_units_Z   8
loop_
 _symmetry_equiv_pos_site_id
 _symmetry_equiv_pos_as_xyz
  1  'x, y, z'
loop_
 _atom_site_type_symbol
 _atom_site_label
 _atom_site_symmetry_multiplicity
 _atom_site_fract_x
 _atom_site_fract_y
 _atom_site_fract_z
 _atom_site_occupancy
  C  C1  1  0.117409  0.551241  0.632390  1
  C  C2  1  0.615051  0.378836  0.609044  1
  C  C3  1  0.688333  0.070216  0.519670  1
  C  C4  1  0.044126  0.859860  0.721765  1
  C  C5  1  0.544127  0.070216  0.221765  1
  C  C6  1  0.188333  0.859860  0.019669  1
  C  C7  1  0.617407  0.378836  0.132389  1
  C  C8  1  0.115052  0.551241  0.109045  1
