# generated using pymatgen
data_C
_symmetry_space_group_name_H-M   'P 1'
_cell_length_a   4.25639351
_cell_length_b   4.19352297
_cell_length_c   4.25639351
_cell_angle_alpha   119.51257543
_cell_angle_beta   110.28842484
_cell_angle_gamma   60.48742457
_symmetry_Int_Tables_number   1
_chemical_formula_structural   C
_chemical_formula_sum   C8
_cell_volume   56.99122402
_cell_formula_units_Z   8
loop_
 _symmetry_equiv_pos_site_id
 _symmetry_equiv_pos_as_xyz
  1  'x, y, z'
loop_
 _atom_site_type_symbol
 _atom_site_label
 _atom_site_symmetry_multiplicity
 _atom_site_fract_x
 _atom_site_fract_y
 _atom_site_fract_z
 _atom_site_occupancy
  C  C1  1  0.505668  0.409384  0.251355  1
  C  C2  1  0.505667  0.065042  0.251355  1
  C  C3  1  0.005667  0.409384  0.751355  1
  C  C4  1  0.005667  0.065042  0.751355  1
  C  C5  1  0.372804  0.439990  0.884218  1
  C  C6  1  0.638531  0.034436  0.618492  1
  C  C7  1  0.372803  0.800163  0.884218  1
  C  C8  1  0.638531  0.674264  0.618492  1
