# generated using pymatgen
data_C
_symmetry_space_group_name_H-M   'P 1'
_cell_length_a   2.49927907
_cell_length_b   4.22429581
_cell_length_c   9.65841786
_cell_angle_alpha   101.55482087
_cell_angle_beta   82.56603477
_cell_angle_gamma   90.00000000
_symmetry_Int_Tables_number   1
_chemical_formula_structural   C
_chemical_formula_sum   C11
_cell_volume   99.02904893
_cell_formula_units_Z   11
loop_
 _symmetry_equiv_pos_site_id
 _symmetry_equiv_pos_as_xyz
  1  'x, y, z'
loop_
 _atom_site_type_symbol
 _atom_site_label
 _atom_site_symmetry_multiplicity
 _atom_site_fract_x
 _atom_site_fract_y
 _atom_site_fract_z
 _atom_site_occupancy
  C  C1  1  0.404098  0.399067  0.210603  1
  C  C2  1  0.390580  0.081043  0.237637  1
  C  C3  1  0.893842  0.913753  0.231115  1
  C  C4  1  0.924669  0.554695  0.169461  1
  C  C5  1  0.616100  0.369401  0.786598  1
  C  C6  1  0.079300  0.417218  0.860199  1
  C  C7  1  1.005026  0.510327  0.008747  1
  C  C8  1  0.231567  0.726804  0.555664  1
  C  C9  1  0.217941  0.069523  0.582917  1
  C  C10  1  0.728276  0.565569  0.562246  1
  C  C11  1  0.697384  0.262975  0.624029  1
