# generated using pymatgen
data_C
_symmetry_space_group_name_H-M   'P 1'
_cell_length_a   4.91677024
_cell_length_b   5.02105743
_cell_length_c   5.31681176
_cell_angle_alpha   90.00000000
_cell_angle_beta   109.15646130
_cell_angle_gamma   90.00000000
_symmetry_Int_Tables_number   1
_chemical_formula_structural   C
_chemical_formula_sum   C16
_cell_volume   123.98989225
_cell_formula_units_Z   16
loop_
 _symmetry_equiv_pos_site_id
 _symmetry_equiv_pos_as_xyz
  1  'x, y, z'
loop_
 _atom_site_type_symbol
 _atom_site_label
 _atom_site_symmetry_multiplicity
 _atom_site_fract_x
 _atom_site_fract_y
 _atom_site_fract_z
 _atom_site_occupancy
  C  C1  1  0.819829  0.010631  -0.011516  1
  C  C2  1  0.123868  0.010631  0.123040  1
  C  C3  1  0.270430  0.259198  0.180621  1
  C  C4  1  0.270430  0.762063  0.180621  1
  C  C5  1  0.118320  0.510631  0.130799  1
  C  C6  1  0.573180  0.733009  0.219678  1
  C  C7  1  0.573180  0.288252  0.219678  1
  C  C8  1  0.897053  0.510631  0.652742  1
  C  C9  1  0.704582  0.510631  0.389559  1
  C  C10  1  0.361619  0.755566  0.735316  1
  C  C11  1  0.202668  0.510631  0.686210  1
  C  C12  1  0.361619  0.265695  0.735316  1
  C  C13  1  0.258699  0.010631  0.642185  1
  C  C14  1  0.650806  0.265671  0.958795  1
  C  C15  1  0.650806  0.755590  0.958795  1
  C  C16  1  0.824544  0.510631  0.919407  1
