data_image0
_cell_length_a       3.15673
_cell_length_b       3.65826
_cell_length_c       3.96386
_cell_angle_alpha    73.5651
_cell_angle_beta     101.563
_cell_angle_gamma    73.6462

_symmetry_space_group_name_H-M    "P 1"
_symmetry_int_tables_number       1

loop_
  _symmetry_equiv_pos_as_xyz
  'x, y, z'

loop_
  _atom_site_label
  _atom_site_occupancy
  _atom_site_fract_x
  _atom_site_fract_y
  _atom_site_fract_z
  _atom_site_thermal_displace_type
  _atom_site_B_iso_or_equiv
  _atom_site_type_symbol
  C1       1.0000 0.34181  0.67732  0.16775  Biso   1.000  C
  C2       1.0000 0.17064  0.34121  0.32318  Biso   1.000  C
  C3       1.0000 0.49302  0.94691  0.32618  Biso   1.000  C
  C4       1.0000 0.60176  0.15590  0.97885  Biso   1.000  C
  C5       1.0000 0.14477  0.29977  0.69106  Biso   1.000  C
  C6       1.0000 0.97360  0.96365  0.84650  Biso   1.000  C
  C7       1.0000 0.82239  0.69407  0.68807  Biso   1.000  C
  C8       1.0000 0.71365  0.48507  0.03540  Biso   1.000  C
