data_image0
_cell_length_a       3.9038
_cell_length_b       3.92854
_cell_length_c       4.96066
_cell_angle_alpha    73.7169
_cell_angle_beta     84.8304
_cell_angle_gamma    71.141

_symmetry_space_group_name_H-M    "P 1"
_symmetry_int_tables_number       1

loop_
  _symmetry_equiv_pos_as_xyz
  'x, y, z'

loop_
  _atom_site_label
  _atom_site_occupancy
  _atom_site_fract_x
  _atom_site_fract_y
  _atom_site_fract_z
  _atom_site_thermal_displace_type
  _atom_site_B_iso_or_equiv
  _atom_site_type_symbol
  C1       1.0000 0.17606  0.35067  0.18605  Biso   1.000  C
  C2       1.0000 0.49187  0.34974  0.04201  Biso   1.000  C
  C3       1.0000 0.79889  0.01189  0.16174  Biso   1.000  C
  C4       1.0000 0.88863  0.69809  0.06707  Biso   1.000  C
  C5       1.0000 0.05659  0.03487  0.34666  Biso   1.000  C
  C6       1.0000 0.14922  0.77841  0.61073  Biso   1.000  C
  C7       1.0000 0.48665  0.64226  0.77487  Biso   1.000  C
  C8       1.0000 0.82388  0.71967  0.77199  Biso   1.000  C
