# generated using pymatgen
data_C
_symmetry_space_group_name_H-M   'P 1'
_cell_length_a   2.55614020
_cell_length_b   4.54492764
_cell_length_c   4.96833120
_cell_angle_alpha   93.43386851
_cell_angle_beta   89.99847727
_cell_angle_gamma   73.66804473
_symmetry_Int_Tables_number   1
_chemical_formula_structural   C
_chemical_formula_sum   C9
_cell_volume   55.28236721
_cell_formula_units_Z   9
loop_
 _symmetry_equiv_pos_site_id
 _symmetry_equiv_pos_as_xyz
  1  'x, y, z'
loop_
 _atom_site_type_symbol
 _atom_site_label
 _atom_site_symmetry_multiplicity
 _atom_site_fract_x
 _atom_site_fract_y
 _atom_site_fract_z
 _atom_site_occupancy
  C  C1  1  0.387824  -0.015040  0.212020  1
  C  C2  1  0.475286  0.810017  -0.025124  1
  C  C3  1  0.382445  -0.004326  0.738351  1
  C  C4  1  0.930151  0.900281  0.584563  1
  C  C5  1  0.840285  0.080028  0.334243  1
  C  C6  1  0.110058  0.540453  0.505118  1
  C  C7  1  0.203684  0.353198  0.817718  1
  C  C8  1  0.667697  0.425171  0.344935  1
  C  C9  1  0.644227  0.472103  -0.024463  1
