data_image0
_cell_length_a       2.78638
_cell_length_b       3.69082
_cell_length_c       4.8637
_cell_angle_alpha    82.0418
_cell_angle_beta     88.1873
_cell_angle_gamma    80.815

_symmetry_space_group_name_H-M    "P 1"
_symmetry_int_tables_number       1

loop_
  _symmetry_equiv_pos_as_xyz
  'x, y, z'

loop_
  _atom_site_label
  _atom_site_occupancy
  _atom_site_fract_x
  _atom_site_fract_y
  _atom_site_fract_z
  _atom_site_thermal_displace_type
  _atom_site_B_iso_or_equiv
  _atom_site_type_symbol
  C1       1.0000 0.74512  0.41229  0.27301  Biso   1.000  C
  C2       1.0000 0.84038  0.07244  0.46349  Biso   1.000  C
  C3       1.0000 0.65196  0.79486  0.30936  Biso   1.000  C
  C4       1.0000 0.35973  0.91573  0.56861  Biso   1.000  C
  C5       1.0000 0.44554  0.73651  0.85544  Biso   1.000  C
  C6       1.0000 0.51187  0.98833  0.02998  Biso   1.000  C
  C7       1.0000 0.54719  0.37216  0.01757  Biso   1.000  C
