# generated using pymatgen
data_C
_symmetry_space_group_name_H-M   'P 1'
_cell_length_a   3.36890647
_cell_length_b   4.24846315
_cell_length_c   4.95746176
_cell_angle_alpha   64.62811779
_cell_angle_beta   67.00761711
_cell_angle_gamma   90.00000000
_symmetry_Int_Tables_number   1
_chemical_formula_structural   C
_chemical_formula_sum   C8
_cell_volume   57.81029963
_cell_formula_units_Z   8
loop_
 _symmetry_equiv_pos_site_id
 _symmetry_equiv_pos_as_xyz
  1  'x, y, z'
loop_
 _atom_site_type_symbol
 _atom_site_label
 _atom_site_symmetry_multiplicity
 _atom_site_fract_x
 _atom_site_fract_y
 _atom_site_fract_z
 _atom_site_occupancy
  C  C1  1  0.254737  0.308377  0.498483  1
  C  C2  1  0.261995  0.042594  0.820151  1
  C  C3  1  0.247482  0.364263  0.176814  1
  C  C4  1  0.254737  0.650785  0.498483  1
  C  C5  1  0.676866  0.854815  0.371504  1
  C  C6  1  0.046614  0.122376  0.096262  1
  C  C7  1  0.462863  0.720156  0.900704  1
  C  C8  1  0.832611  0.727836  0.625461  1
