# generated using pymatgen
data_C
_symmetry_space_group_name_H-M   'P 1'
_cell_length_a   2.50800176
_cell_length_b   3.48270310
_cell_length_c   6.11750919
_cell_angle_alpha   106.53794933
_cell_angle_beta   84.11776064
_cell_angle_gamma   111.10241844
_symmetry_Int_Tables_number   1
_chemical_formula_structural   C
_chemical_formula_sum   C6
_cell_volume   47.78851272
_cell_formula_units_Z   6
loop_
 _symmetry_equiv_pos_site_id
 _symmetry_equiv_pos_as_xyz
  1  'x, y, z'
loop_
 _atom_site_type_symbol
 _atom_site_label
 _atom_site_symmetry_multiplicity
 _atom_site_fract_x
 _atom_site_fract_y
 _atom_site_fract_z
 _atom_site_occupancy
  C  C1  1  0.124712  0.070716  0.057848  1
  C  C2  1  0.124712  0.194735  0.305886  1
  C  C3  1  0.320073  0.405712  -0.053516  1
  C  C4  1  0.929351  0.859740  0.417249  1
  C  C5  1  0.320074  0.641095  0.417249  1
  C  C6  1  0.929351  0.624357  -0.053516  1
