data_image0
_cell_length_a       3.63242
_cell_length_b       4.52099
_cell_length_c       4.52088
_cell_angle_alpha    108.542
_cell_angle_beta     105.876
_cell_angle_gamma    105.881

_symmetry_space_group_name_H-M    "P 1"
_symmetry_int_tables_number       1

loop_
  _symmetry_equiv_pos_as_xyz
  'x, y, z'

loop_
  _atom_site_label
  _atom_site_occupancy
  _atom_site_fract_x
  _atom_site_fract_y
  _atom_site_fract_z
  _atom_site_thermal_displace_type
  _atom_site_B_iso_or_equiv
  _atom_site_type_symbol
  C1       1.0000 0.22813  0.84940  0.12578  Biso   1.000  C
  C2       1.0000 0.22816  0.67146  0.30369  Biso   1.000  C
  C3       1.0000 0.52228  0.45932  0.72700  Biso   1.000  C
  C4       1.0000 0.52229  0.27269  0.91362  Biso   1.000  C
  C5       1.0000 0.16134  0.52555  0.53875  Biso   1.000  C
  C6       1.0000 0.94586  0.30780  0.12973  Biso   1.000  C
  C7       1.0000 0.16132  0.08444  0.97984  Biso   1.000  C
  C8       1.0000 0.94587  0.67544  0.76211  Biso   1.000  C
