# generated using pymatgen
data_C
_symmetry_space_group_name_H-M   'P 1'
_cell_length_a   3.50176522
_cell_length_b   4.08316970
_cell_length_c   5.01976135
_cell_angle_alpha   100.42886763
_cell_angle_beta   101.27279837
_cell_angle_gamma   105.24095399
_symmetry_Int_Tables_number   1
_chemical_formula_structural   C
_chemical_formula_sum   C8
_cell_volume   65.83336154
_cell_formula_units_Z   8
loop_
 _symmetry_equiv_pos_site_id
 _symmetry_equiv_pos_as_xyz
  1  'x, y, z'
loop_
 _atom_site_type_symbol
 _atom_site_label
 _atom_site_symmetry_multiplicity
 _atom_site_fract_x
 _atom_site_fract_y
 _atom_site_fract_z
 _atom_site_occupancy
  C  C1  1  0.281672  0.889447  0.214469  1
  C  C2  1  0.137521  0.575329  0.292551  1
  C  C3  1  0.539603  0.504851  0.727201  1
  C  C4  1  0.535302  0.263112  0.902130  1
  C  C5  1  0.191672  0.576194  0.578781  1
  C  C6  1  0.923398  0.275944  0.064490  1
  C  C7  1  0.165229  0.044277  -0.030585  1
  C  C8  1  0.940858  0.716957  0.731472  1
