data_image0
_cell_length_a       3.17799
_cell_length_b       4.46061
_cell_length_c       4.79075
_cell_angle_alpha    101.215
_cell_angle_beta     101.185
_cell_angle_gamma    103.624

_symmetry_space_group_name_H-M    "P 1"
_symmetry_int_tables_number       1

loop_
  _symmetry_equiv_pos_as_xyz
  'x, y, z'

loop_
  _atom_site_label
  _atom_site_occupancy
  _atom_site_fract_x
  _atom_site_fract_y
  _atom_site_fract_z
  _atom_site_thermal_displace_type
  _atom_site_B_iso_or_equiv
  _atom_site_type_symbol
  C1       1.0000 0.46994  0.71105  0.12283  Biso   1.000  C
  C2       1.0000 0.61516  0.04109  0.12185  Biso   1.000  C
  C3       1.0000 0.67042  0.29610  0.37404  Biso   1.000  C
  C4       1.0000 0.52805  0.57687  0.36867  Biso   1.000  C
  C5       1.0000 0.87817  0.29068  0.68839  Biso   1.000  C
  C6       1.0000 0.65397  0.04844  0.81695  Biso   1.000  C
  C7       1.0000 0.47418  0.73762  0.64689  Biso   1.000  C
  C8       1.0000 0.27086  0.53750  0.81969  Biso   1.000  C
