# generated using pymatgen
data_C
_symmetry_space_group_name_H-M   'P 1'
_cell_length_a   2.50194057
_cell_length_b   4.27721062
_cell_length_c   5.24705530
_cell_angle_alpha   113.63013202
_cell_angle_beta   103.32442642
_cell_angle_gamma   89.99885476
_symmetry_Int_Tables_number   1
_chemical_formula_structural   C
_chemical_formula_sum   C8
_cell_volume   49.78820996
_cell_formula_units_Z   8
loop_
 _symmetry_equiv_pos_site_id
 _symmetry_equiv_pos_as_xyz
  1  'x, y, z'
loop_
 _atom_site_type_symbol
 _atom_site_label
 _atom_site_symmetry_multiplicity
 _atom_site_fract_x
 _atom_site_fract_y
 _atom_site_fract_z
 _atom_site_occupancy
  C  C1  1  0.081501  0.563265  0.727525  1
  C  C2  1  0.075461  0.226136  0.716080  1
  C  C3  1  0.586012  0.730327  0.736032  1
  C  C4  1  0.530630  0.008336  0.623635  1
  C  C5  1  0.806451  0.288903  0.175842  1
  C  C6  1  0.811853  0.961969  0.186098  1
  C  C7  1  0.301953  0.447340  0.167200  1
  C  C8  1  0.357240  0.836874  0.279435  1
