# generated using pymatgen
data_C
_symmetry_space_group_name_H-M   'P 1'
_cell_length_a   2.53933134
_cell_length_b   2.53824095
_cell_length_c   9.45982902
_cell_angle_alpha   89.99999999
_cell_angle_beta   82.29321094
_cell_angle_gamma   60.01420352
_symmetry_Int_Tables_number   1
_chemical_formula_structural   C
_chemical_formula_sum   C9
_cell_volume   52.17464768
_cell_formula_units_Z   9
loop_
 _symmetry_equiv_pos_site_id
 _symmetry_equiv_pos_as_xyz
  1  'x, y, z'
loop_
 _atom_site_type_symbol
 _atom_site_label
 _atom_site_symmetry_multiplicity
 _atom_site_fract_x
 _atom_site_fract_y
 _atom_site_fract_z
 _atom_site_occupancy
  C  C1  1  0.632233  0.427692  0.208854  1
  C  C2  1  0.361677  0.051926  0.115372  1
  C  C3  1  0.902794  0.781367  0.302337  1
  C  C4  1  0.797528  0.834495  0.460519  1
  C  C5  1  0.093497  0.186495  0.516656  1
  C  C6  1  -0.015963  0.241226  0.681155  1
  C  C7  1  0.170973  0.647757  0.901054  1
  C  C8  1  0.280432  0.593028  0.736553  1
  C  C9  1  0.466938  -0.000213  0.957190  1
