# generated using pymatgen
data_C
_symmetry_space_group_name_H-M   'P 1'
_cell_length_a   2.66671397
_cell_length_b   4.57843958
_cell_length_c   5.23020922
_cell_angle_alpha   115.48320886
_cell_angle_beta   104.52147317
_cell_angle_gamma   89.85206557
_symmetry_Int_Tables_number   1
_chemical_formula_structural   C
_chemical_formula_sum   C8
_cell_volume   55.39688972
_cell_formula_units_Z   8
loop_
 _symmetry_equiv_pos_site_id
 _symmetry_equiv_pos_as_xyz
  1  'x, y, z'
loop_
 _atom_site_type_symbol
 _atom_site_label
 _atom_site_symmetry_multiplicity
 _atom_site_fract_x
 _atom_site_fract_y
 _atom_site_fract_z
 _atom_site_occupancy
  C  C1  1  0.403662  0.346569  0.113112  1
  C  C2  1  0.227315  0.394613  0.839479  1
  C  C3  1  0.069388  0.748828  0.570524  1
  C  C4  1  0.215649  0.713695  0.839061  1
  C  C5  1  0.942430  0.502844  0.291317  1
  C  C6  1  0.360423  0.012156  0.101081  1
  C  C7  1  0.482765  0.055605  0.397824  1
  C  C8  1  0.061028  0.081316  0.560707  1
