# generated using pymatgen
data_C
_symmetry_space_group_name_H-M   'P 1'
_cell_length_a   2.55162046
_cell_length_b   5.66261091
_cell_length_c   6.09857551
_cell_angle_alpha   93.22698983
_cell_angle_beta   101.99305199
_cell_angle_gamma   90.01796137
_symmetry_Int_Tables_number   1
_chemical_formula_structural   C
_chemical_formula_sum   C12
_cell_volume   86.05077020
_cell_formula_units_Z   12
loop_
 _symmetry_equiv_pos_site_id
 _symmetry_equiv_pos_as_xyz
  1  'x, y, z'
loop_
 _atom_site_type_symbol
 _atom_site_label
 _atom_site_symmetry_multiplicity
 _atom_site_fract_x
 _atom_site_fract_y
 _atom_site_fract_z
 _atom_site_occupancy
  C  C1  1  0.597284  0.221943  0.887683  1
  C  C2  1  0.482537  0.140567  0.659665  1
  C  C3  1  0.916617  0.762848  0.528411  1
  C  C4  1  0.913184  0.496952  0.521413  1
  C  C5  1  0.456897  0.887250  0.609294  1
  C  C6  1  0.776878  0.073749  0.248640  1
  C  C7  1  0.781322  0.839508  0.257044  1
  C  C8  1  0.689874  0.675397  0.073465  1
  C  C9  1  0.161891  0.570358  0.017275  1
  C  C10  1  0.155757  0.304597  0.005107  1
  C  C11  1  0.277269  0.215286  0.249298  1
  C  C12  1  0.396872  0.349755  0.488796  1
