# generated using pymatgen
data_C
_symmetry_space_group_name_H-M   'P 1'
_cell_length_a   2.66811902
_cell_length_b   4.58084379
_cell_length_c   5.22007268
_cell_angle_alpha   116.11494978
_cell_angle_beta   102.77443409
_cell_angle_gamma   90.82108425
_symmetry_Int_Tables_number   1
_chemical_formula_structural   C
_chemical_formula_sum   C8
_cell_volume   55.41367558
_cell_formula_units_Z   8
loop_
 _symmetry_equiv_pos_site_id
 _symmetry_equiv_pos_as_xyz
  1  'x, y, z'
loop_
 _atom_site_type_symbol
 _atom_site_label
 _atom_site_symmetry_multiplicity
 _atom_site_fract_x
 _atom_site_fract_y
 _atom_site_fract_z
 _atom_site_occupancy
  C  C1  1  0.445698  0.618951  0.019290  1
  C  C2  1  0.315955  0.364912  0.722858  1
  C  C3  1  0.894770  0.917549  0.827809  1
  C  C4  1  0.743887  0.885309  0.549539  1
  C  C5  1  0.425438  0.942165  0.007418  1
  C  C6  1  0.593080  0.582602  0.281750  1
  C  C7  1  0.590244  0.262793  0.280813  1
  C  C8  1  0.743478  0.227425  0.560079  1
