# generated using pymatgen
data_C
_symmetry_space_group_name_H-M   'P 1'
_cell_length_a   2.53877568
_cell_length_b   2.53773433
_cell_length_c   9.35301053
_cell_angle_alpha   90.00046901
_cell_angle_beta   89.98905076
_cell_angle_gamma   60.01627911
_symmetry_Int_Tables_number   1
_chemical_formula_structural   C
_chemical_formula_sum   C9
_cell_volume   52.19438028
_cell_formula_units_Z   9
loop_
 _symmetry_equiv_pos_site_id
 _symmetry_equiv_pos_as_xyz
  1  'x, y, z'
loop_
 _atom_site_type_symbol
 _atom_site_label
 _atom_site_symmetry_multiplicity
 _atom_site_fract_x
 _atom_site_fract_y
 _atom_site_fract_z
 _atom_site_occupancy
  C  C1  1  0.795924  0.208877  0.907033  1
  C  C2  1  0.796043  0.208357  0.748948  1
  C  C3  1  0.462735  0.875039  0.692601  1
  C  C4  1  0.796249  0.208272  0.472386  1
  C  C5  1  0.462899  0.874950  0.527938  1
  C  C6  1  0.129892  0.541436  0.251974  1
  C  C7  1  0.130125  0.541815  0.093915  1
  C  C8  1  0.796486  0.208154  0.308079  1
  C  C9  1  0.462762  0.864323  0.000544  1
