data_image0
_cell_length_a       2.40504
_cell_length_b       2.51499
_cell_length_c       9.22653
_cell_angle_alpha    89.788
_cell_angle_beta     93.3902
_cell_angle_gamma    58.4841

_symmetry_space_group_name_H-M    "P 1"
_symmetry_int_tables_number       1

loop_
  _symmetry_equiv_pos_as_xyz
  'x, y, z'

loop_
  _atom_site_label
  _atom_site_occupancy
  _atom_site_fract_x
  _atom_site_fract_y
  _atom_site_fract_z
  _atom_site_thermal_displace_type
  _atom_site_B_iso_or_equiv
  _atom_site_type_symbol
  C1       1.0000 0.93076  0.17149  0.90447  Biso   1.000  C
  C2       1.0000 0.87875  0.19784  0.74771  Biso   1.000  C
  C3       1.0000 0.53135  0.86789  0.69083  Biso   1.000  C
  C4       1.0000 0.78499  0.24037  0.47196  Biso   1.000  C
  C5       1.0000 0.47610  0.89411  0.52688  Biso   1.000  C
  C6       1.0000 0.04323  0.60718  0.25388  Biso   1.000  C
  C7       1.0000 0.99323  0.63354  0.09684  Biso   1.000  C
  C8       1.0000 0.73266  0.26613  0.31015  Biso   1.000  C
  C9       1.0000 0.46205  0.65268  0.00069  Biso   1.000  C
