# generated using pymatgen
data_C
_symmetry_space_group_name_H-M   'P 1'
_cell_length_a   2.50857919
_cell_length_b   2.56335556
_cell_length_c   8.45575444
_cell_angle_alpha   85.53600781
_cell_angle_beta   81.46951426
_cell_angle_gamma   60.70439892
_symmetry_Int_Tables_number   1
_chemical_formula_structural   C
_chemical_formula_sum   C8
_cell_volume   46.89422225
_cell_formula_units_Z   8
loop_
 _symmetry_equiv_pos_site_id
 _symmetry_equiv_pos_as_xyz
  1  'x, y, z'
loop_
 _atom_site_type_symbol
 _atom_site_label
 _atom_site_symmetry_multiplicity
 _atom_site_fract_x
 _atom_site_fract_y
 _atom_site_fract_z
 _atom_site_occupancy
  C  C1  1  0.806986  0.656257  0.300893  1
  C  C2  1  0.265158  0.656876  0.383928  1
  C  C3  1  0.897745  0.655780  0.119850  1
  C  C4  1  0.174399  0.657352  0.564971  1
  C  C5  1  0.476460  -0.009229  0.627428  1
  C  C6  1  0.384514  -0.009325  0.811418  1
  C  C7  1  0.687630  0.322458  0.873403  1
  C  C8  1  0.595684  0.322361  0.057392  1
