# generated using pymatgen
data_C
_symmetry_space_group_name_H-M   'P 1'
_cell_length_a   2.51901704
_cell_length_b   4.23859972
_cell_length_c   6.00465381
_cell_angle_alpha   92.76514006
_cell_angle_beta   93.24390906
_cell_angle_gamma   93.07834583
_symmetry_Int_Tables_number   1
_chemical_formula_structural   C
_chemical_formula_sum   C11
_cell_volume   63.83261547
_cell_formula_units_Z   11
loop_
 _symmetry_equiv_pos_site_id
 _symmetry_equiv_pos_as_xyz
  1  'x, y, z'
loop_
 _atom_site_type_symbol
 _atom_site_label
 _atom_site_symmetry_multiplicity
 _atom_site_fract_x
 _atom_site_fract_y
 _atom_site_fract_z
 _atom_site_occupancy
  C  C1  1  0.786275  0.841795  0.826942  1
  C  C2  1  0.767135  0.505429  0.894779  1
  C  C3  1  0.304430  0.010161  0.912937  1
  C  C4  1  0.244080  0.331035  0.808053  1
  C  C5  1  0.343833  0.031349  0.171926  1
  C  C6  1  0.867417  0.203006  0.255867  1
  C  C7  1  0.325852  0.694911  0.239323  1
  C  C8  1  0.807450  0.525429  0.153579  1
  C  C9  1  0.287496  0.687481  0.487672  1
  C  C10  1  0.828648  0.856049  0.577236  1
  C  C11  1  0.074598  0.278350  0.543310  1
