# generated using pymatgen
data_C
_symmetry_space_group_name_H-M   'P 1'
_cell_length_a   2.49182363
_cell_length_b   4.42209405
_cell_length_c   5.73964925
_cell_angle_alpha   98.91334575
_cell_angle_beta   93.08875469
_cell_angle_gamma   95.77829116
_symmetry_Int_Tables_number   1
_chemical_formula_structural   C
_chemical_formula_sum   C9
_cell_volume   62.00888578
_cell_formula_units_Z   9
loop_
 _symmetry_equiv_pos_site_id
 _symmetry_equiv_pos_as_xyz
  1  'x, y, z'
loop_
 _atom_site_type_symbol
 _atom_site_label
 _atom_site_symmetry_multiplicity
 _atom_site_fract_x
 _atom_site_fract_y
 _atom_site_fract_z
 _atom_site_occupancy
  C  C1  1  0.630688  0.433539  0.532046  1
  C  C2  1  0.154156  0.600977  0.555227  1
  C  C3  1  0.418030  0.647059  0.125577  1
  C  C4  1  0.873999  0.485285  0.085381  1
  C  C5  1  0.589592  -0.029863  0.204689  1
  C  C6  1  0.192187  0.071106  0.853211  1
  C  C7  1  0.725747  0.146139  -0.000999  1
  C  C8  1  0.638384  0.082609  0.470502  1
  C  C9  1  0.146627  0.952072  0.591464  1
