# generated using pymatgen
data_C
_symmetry_space_group_name_H-M   'P 1'
_cell_length_a   2.51137532
_cell_length_b   3.35875312
_cell_length_c   5.34304454
_cell_angle_alpha   90.00000000
_cell_angle_beta   90.00000000
_cell_angle_gamma   68.04641892
_symmetry_Int_Tables_number   1
_chemical_formula_structural   C
_chemical_formula_sum   C6
_cell_volume   41.80096906
_cell_formula_units_Z   6
loop_
 _symmetry_equiv_pos_site_id
 _symmetry_equiv_pos_as_xyz
  1  'x, y, z'
loop_
 _atom_site_type_symbol
 _atom_site_label
 _atom_site_symmetry_multiplicity
 _atom_site_fract_x
 _atom_site_fract_y
 _atom_site_fract_z
 _atom_site_occupancy
  C  C1  1  0.862241  0.192005  0.753583  1
  C  C2  1  0.862241  0.192005  0.489970  1
  C  C3  1  0.362240  0.192005  0.340297  1
  C  C4  1  0.362240  0.192005  0.894398  1
  C  C5  1  0.176749  0.562988  0.133001  1
  C  C6  1  0.547733  0.821023  0.133001  1
