data_image0
_cell_length_a       2.50951
_cell_length_b       3.31549
_cell_length_c       5.2587
_cell_angle_alpha    90
_cell_angle_beta     90
_cell_angle_gamma    67.7621

_symmetry_space_group_name_H-M    "P 1"
_symmetry_int_tables_number       1

loop_
  _symmetry_equiv_pos_as_xyz
  'x, y, z'

loop_
  _atom_site_label
  _atom_site_occupancy
  _atom_site_fract_x
  _atom_site_fract_y
  _atom_site_fract_z
  _atom_site_thermal_displace_type
  _atom_site_B_iso_or_equiv
  _atom_site_type_symbol
  C1       1.0000 0.86224  0.19201  0.75194  Biso   1.000  C
  C2       1.0000 0.86224  0.19201  0.49614  Biso   1.000  C
  C3       1.0000 0.36224  0.19201  0.34238  Biso   1.000  C
  C4       1.0000 0.36224  0.19201  0.90570  Biso   1.000  C
  C5       1.0000 0.18160  0.55328  0.12404  Biso   1.000  C
  C6       1.0000 0.54288  0.83073  0.12404  Biso   1.000  C
