# generated using pymatgen
data_C
_symmetry_space_group_name_H-M   'P 1'
_cell_length_a   3.49984249
_cell_length_b   3.67703117
_cell_length_c   5.44816037
_cell_angle_alpha   105.91023854
_cell_angle_beta   96.38287741
_cell_angle_gamma   103.23939508
_symmetry_Int_Tables_number   1
_chemical_formula_structural   C
_chemical_formula_sum   C8
_cell_volume   64.49147821
_cell_formula_units_Z   8
loop_
 _symmetry_equiv_pos_site_id
 _symmetry_equiv_pos_as_xyz
  1  'x, y, z'
loop_
 _atom_site_type_symbol
 _atom_site_label
 _atom_site_symmetry_multiplicity
 _atom_site_fract_x
 _atom_site_fract_y
 _atom_site_fract_z
 _atom_site_occupancy
  C  C1  1  0.402128  0.782230  0.249207  1
  C  C2  1  0.302600  0.411571  0.268851  1
  C  C3  1  0.965303  0.317746  0.381121  1
  C  C4  1  0.026661  0.420373  0.658830  1
  C  C5  1  0.584615  0.040797  0.909640  1
  C  C6  1  0.695293  0.353892  0.791039  1
  C  C7  1  0.437440  0.613369  0.786533  1
  C  C8  1  0.566696  0.154289  0.201404  1
