data_image0
_cell_length_a       3.52133
_cell_length_b       3.80708
_cell_length_c       5.44967
_cell_angle_alpha    106.121
_cell_angle_beta     99.9189
_cell_angle_gamma    109.329

_symmetry_space_group_name_H-M    "P 1"
_symmetry_int_tables_number       1

loop_
  _symmetry_equiv_pos_as_xyz
  'x, y, z'

loop_
  _atom_site_label
  _atom_site_occupancy
  _atom_site_fract_x
  _atom_site_fract_y
  _atom_site_fract_z
  _atom_site_thermal_displace_type
  _atom_site_B_iso_or_equiv
  _atom_site_type_symbol
  C1       1.0000 0.40307  0.70772  0.14676  Biso   1.000  C
  C2       1.0000 0.30731  0.43664  0.26819  Biso   1.000  C
  C3       1.0000 0.97812  0.36018  0.40206  Biso   1.000  C
  C4       1.0000 0.01707  0.41339  0.65959  Biso   1.000  C
  C5       1.0000 0.59211  0.06585  0.91490  Biso   1.000  C
  C6       1.0000 0.68788  0.33693  0.79347  Biso   1.000  C
  C7       1.0000 0.48750  0.62914  0.87378  Biso   1.000  C
  C8       1.0000 0.50768  0.14443  0.18788  Biso   1.000  C
