data_image0
_cell_length_a       2.466
_cell_length_b       4.30752
_cell_length_c       6.57129
_cell_angle_alpha    88.7963
_cell_angle_beta     100.815
_cell_angle_gamma    90

_symmetry_space_group_name_H-M    "P 1"
_symmetry_int_tables_number       1

loop_
  _symmetry_equiv_pos_as_xyz
  'x, y, z'

loop_
  _atom_site_label
  _atom_site_occupancy
  _atom_site_fract_x
  _atom_site_fract_y
  _atom_site_fract_z
  _atom_site_thermal_displace_type
  _atom_site_B_iso_or_equiv
  _atom_site_type_symbol
  C1       1.0000 0.65994  0.05752  0.54184  Biso   1.000  C
  C2       1.0000 0.10634  0.07227  0.43465  Biso   1.000  C
  C3       1.0000 0.77198  0.02494  0.76591  Biso   1.000  C
  C4       1.0000 0.32557  0.01019  0.87310  Biso   1.000  C
  C5       1.0000 0.98980  0.11538  0.20155  Biso   1.000  C
  C6       1.0000 0.96981  0.46283  0.16157  Biso   1.000  C
  C7       1.0000 0.46211  0.61963  0.14617  Biso   1.000  C
  C8       1.0000 0.44212  0.96707  0.10620  Biso   1.000  C
