# generated using pymatgen
data_C
_symmetry_space_group_name_H-M   'P 1'
_cell_length_a   2.47846271
_cell_length_b   4.31304798
_cell_length_c   6.53886141
_cell_angle_alpha   92.32225876
_cell_angle_beta   100.92465136
_cell_angle_gamma   90.00000000
_symmetry_Int_Tables_number   1
_chemical_formula_structural   C
_chemical_formula_sum   C8
_cell_volume   68.57343263
_cell_formula_units_Z   8
loop_
 _symmetry_equiv_pos_site_id
 _symmetry_equiv_pos_as_xyz
  1  'x, y, z'
loop_
 _atom_site_type_symbol
 _atom_site_label
 _atom_site_symmetry_multiplicity
 _atom_site_fract_x
 _atom_site_fract_y
 _atom_site_fract_z
 _atom_site_occupancy
  C  C1  1  0.661269  0.061145  0.544497  1
  C  C2  1  0.107485  0.079598  0.436930  1
  C  C3  1  0.770646  0.021309  0.763251  1
  C  C4  1  0.324429  0.002856  0.870818  1
  C  C5  1  -0.008577  0.121440  0.204806  1
  C  C6  1  -0.029580  0.462695  0.162799  1
  C  C7  1  0.461494  0.619760  0.144948  1
  C  C8  1  0.440491  0.961013  0.102941  1
