data_image0
_cell_length_a       4.12642
_cell_length_b       3.46949
_cell_length_c       4.33666
_cell_angle_alpha    103.48
_cell_angle_beta     110.52
_cell_angle_gamma    78.7647

_symmetry_space_group_name_H-M    "P 1"
_symmetry_int_tables_number       1

loop_
  _symmetry_equiv_pos_as_xyz
  'x, y, z'

loop_
  _atom_site_label
  _atom_site_occupancy
  _atom_site_fract_x
  _atom_site_fract_y
  _atom_site_fract_z
  _atom_site_thermal_displace_type
  _atom_site_B_iso_or_equiv
  _atom_site_type_symbol
  C1       1.0000 0.09128  0.28738  0.06608  Biso   1.000  C
  C2       1.0000 0.74456  0.38843  0.93828  Biso   1.000  C
  C3       1.0000 0.50395  0.65244  0.09767  Biso   1.000  C
  C4       1.0000 0.29454  0.93808  0.91148  Biso   1.000  C
  C5       1.0000 0.33419  0.93092  0.58972  Biso   1.000  C
  C6       1.0000 0.52687  0.23550  0.59302  Biso   1.000  C
  C7       1.0000 0.36557  0.53093  0.34987  Biso   1.000  C
