# generated using pymatgen
data_C
_symmetry_space_group_name_H-M   'P 1'
_cell_length_a   4.14013446
_cell_length_b   3.53825899
_cell_length_c   4.25858933
_cell_angle_alpha   103.06084559
_cell_angle_beta   111.57463549
_cell_angle_gamma   77.46979465
_symmetry_Int_Tables_number   1
_chemical_formula_structural   C
_chemical_formula_sum   C7
_cell_volume   55.89177729
_cell_formula_units_Z   7
loop_
 _symmetry_equiv_pos_site_id
 _symmetry_equiv_pos_as_xyz
  1  'x, y, z'
loop_
 _atom_site_type_symbol
 _atom_site_label
 _atom_site_symmetry_multiplicity
 _atom_site_fract_x
 _atom_site_fract_y
 _atom_site_fract_z
 _atom_site_occupancy
  C  C1  1  0.099254  0.284198  0.061344  1
  C  C2  1  0.735705  0.390289  0.940515  1
  C  C3  1  0.516619  0.652428  0.109616  1
  C  C4  1  0.280009  0.941462  0.904318  1
  C  C5  1  0.338777  0.926760  0.588216  1
  C  C6  1  0.526172  0.237884  0.599668  1
  C  C7  1  0.364417  0.530655  0.342446  1
