# generated using pymatgen
data_C
_symmetry_space_group_name_H-M   'P 1'
_cell_length_a   2.52178278
_cell_length_b   2.58743009
_cell_length_c   4.92977710
_cell_angle_alpha   91.93661484
_cell_angle_beta   90.00000286
_cell_angle_gamma   89.99999823
_symmetry_Int_Tables_number   1
_chemical_formula_structural   C
_chemical_formula_sum   C5
_cell_volume   32.14811059
_cell_formula_units_Z   5
loop_
 _symmetry_equiv_pos_site_id
 _symmetry_equiv_pos_as_xyz
  1  'x, y, z'
loop_
 _atom_site_type_symbol
 _atom_site_label
 _atom_site_symmetry_multiplicity
 _atom_site_fract_x
 _atom_site_fract_y
 _atom_site_fract_z
 _atom_site_occupancy
  C  C1  1  0.237445  0.172943  0.651040  1
  C  C2  1  0.237445  0.134883  0.364298  1
  C  C3  1  0.737447  0.723155  -0.010974  1
  C  C4  1  0.737447  0.063519  0.222575  1
  C  C5  1  0.237445  0.676771  0.819329  1
