# generated using pymatgen
data_C
_symmetry_space_group_name_H-M   'P 1'
_cell_length_a   3.63087584
_cell_length_b   3.67563746
_cell_length_c   5.81318140
_cell_angle_alpha   94.77895485
_cell_angle_beta   104.08424800
_cell_angle_gamma   98.80047135
_symmetry_Int_Tables_number   1
_chemical_formula_structural   C
_chemical_formula_sum   C9
_cell_volume   73.77299314
_cell_formula_units_Z   9
loop_
 _symmetry_equiv_pos_site_id
 _symmetry_equiv_pos_as_xyz
  1  'x, y, z'
loop_
 _atom_site_type_symbol
 _atom_site_label
 _atom_site_symmetry_multiplicity
 _atom_site_fract_x
 _atom_site_fract_y
 _atom_site_fract_z
 _atom_site_occupancy
  C  C1  1  0.427656  0.403444  -0.000304  1
  C  C2  1  0.633012  0.765010  0.105961  1
  C  C3  1  -0.006611  0.722627  0.270145  1
  C  C4  1  0.512037  0.200176  0.602278  1
  C  C5  1  0.904411  0.324898  0.606786  1
  C  C6  1  0.276050  0.299745  0.754961  1
  C  C7  1  0.529984  0.134091  0.179079  1
  C  C8  1  0.946474  0.346039  0.349297  1
  C  C9  1  0.260877  0.090404  0.344411  1
