data_image0
_cell_length_a       3.55702
_cell_length_b       3.63707
_cell_length_c       5.47381
_cell_angle_alpha    93.2285
_cell_angle_beta     99.0648
_cell_angle_gamma    100.075

_symmetry_space_group_name_H-M    "P 1"
_symmetry_int_tables_number       1

loop_
  _symmetry_equiv_pos_as_xyz
  'x, y, z'

loop_
  _atom_site_label
  _atom_site_occupancy
  _atom_site_fract_x
  _atom_site_fract_y
  _atom_site_fract_z
  _atom_site_thermal_displace_type
  _atom_site_B_iso_or_equiv
  _atom_site_type_symbol
  C1       1.0000 0.43136  0.42154  0.00923  Biso   1.000  C
  C2       1.0000 0.65815  0.76358  0.11399  Biso   1.000  C
  C3       1.0000 0.99758  0.71443  0.26792  Biso   1.000  C
  C4       1.0000 0.48703  0.21145  0.60352  Biso   1.000  C
  C5       1.0000 0.87916  0.30690  0.60618  Biso   1.000  C
  C6       1.0000 0.23773  0.31839  0.76095  Biso   1.000  C
  C7       1.0000 0.57659  0.14026  0.16732  Biso   1.000  C
  C8       1.0000 0.95342  0.32631  0.33788  Biso   1.000  C
  C9       1.0000 0.26287  0.08357  0.34562  Biso   1.000  C
