# generated using pymatgen
data_C
_symmetry_space_group_name_H-M   'P 1'
_cell_length_a   2.62626666
_cell_length_b   3.49939859
_cell_length_c   4.77546759
_cell_angle_alpha   89.83877974
_cell_angle_beta   91.60785229
_cell_angle_gamma   110.38133803
_symmetry_Int_Tables_number   1
_chemical_formula_structural   C
_chemical_formula_sum   C6
_cell_volume   41.12330286
_cell_formula_units_Z   6
loop_
 _symmetry_equiv_pos_site_id
 _symmetry_equiv_pos_as_xyz
  1  'x, y, z'
loop_
 _atom_site_type_symbol
 _atom_site_label
 _atom_site_symmetry_multiplicity
 _atom_site_fract_x
 _atom_site_fract_y
 _atom_site_fract_z
 _atom_site_occupancy
  C  C1  1  0.354611  0.722171  0.376706  1
  C  C2  1  0.564192  0.091642  0.560942  1
  C  C3  1  0.787162  0.465750  0.445145  1
  C  C4  1  0.540258  0.094954  0.862130  1
  C  C5  1  0.737706  0.492443  -0.017751  1
  C  C6  1  0.349423  0.722120  0.044460  1
