# generated using pymatgen
data_C
_symmetry_space_group_name_H-M   'P 1'
_cell_length_a   2.56690338
_cell_length_b   2.56690338
_cell_length_c   5.88364300
_cell_angle_alpha   102.59974788
_cell_angle_beta   102.59974786
_cell_angle_gamma   90.00000001
_symmetry_Int_Tables_number   1
_chemical_formula_structural   C
_chemical_formula_sum   C5
_cell_volume   36.87644470
_cell_formula_units_Z   5
loop_
 _symmetry_equiv_pos_site_id
 _symmetry_equiv_pos_as_xyz
  1  'x, y, z'
loop_
 _atom_site_type_symbol
 _atom_site_label
 _atom_site_symmetry_multiplicity
 _atom_site_fract_x
 _atom_site_fract_y
 _atom_site_fract_z
 _atom_site_occupancy
  C  C1  1  0.967349  0.421562  0.771163  1
  C  C2  1  0.092625  0.546837  0.021714  1
  C  C3  1  0.217900  0.672112  0.272263  1
  C  C4  1  0.278878  0.233090  0.394220  1
  C  C5  1  0.406373  0.360584  0.649209  1
