# generated using pymatgen
data_C
_symmetry_space_group_name_H-M   'P 1'
_cell_length_a   2.92955561
_cell_length_b   3.71824269
_cell_length_c   5.05955571
_cell_angle_alpha   74.18780189
_cell_angle_beta   76.36417171
_cell_angle_gamma   77.41472410
_symmetry_Int_Tables_number   1
_chemical_formula_structural   C
_chemical_formula_sum   C7
_cell_volume   50.83206376
_cell_formula_units_Z   7
loop_
 _symmetry_equiv_pos_site_id
 _symmetry_equiv_pos_as_xyz
  1  'x, y, z'
loop_
 _atom_site_type_symbol
 _atom_site_label
 _atom_site_symmetry_multiplicity
 _atom_site_fract_x
 _atom_site_fract_y
 _atom_site_fract_z
 _atom_site_occupancy
  C  C1  1  0.671994  0.939529  0.592160  1
  C  C2  1  -0.004239  0.603928  0.583255  1
  C  C3  1  0.674722  0.239696  0.368053  1
  C  C4  1  0.203649  0.627818  0.010886  1
  C  C5  1  0.343037  -0.014938  0.848143  1
  C  C6  1  0.150611  0.381907  0.841149  1
  C  C7  1  0.156167  0.452683  0.318116  1
