data_image0
_cell_length_a       2.85006
_cell_length_b       3.69109
_cell_length_c       4.87166
_cell_angle_alpha    80.71
_cell_angle_beta     81.1367
_cell_angle_gamma    80.743

_symmetry_space_group_name_H-M    "P 1"
_symmetry_int_tables_number       1

loop_
  _symmetry_equiv_pos_as_xyz
  'x, y, z'

loop_
  _atom_site_label
  _atom_site_occupancy
  _atom_site_fract_x
  _atom_site_fract_y
  _atom_site_fract_z
  _atom_site_thermal_displace_type
  _atom_site_B_iso_or_equiv
  _atom_site_type_symbol
  C1       1.0000 0.66180  0.94141  0.60590  Biso   1.000  C
  C2       1.0000 0.92033  0.56899  0.56354  Biso   1.000  C
  C3       1.0000 0.74270  0.28672  0.41757  Biso   1.000  C
  C4       1.0000 0.20995  0.61857  0.00339  Biso   1.000  C
  C5       1.0000 0.30383  0.98165  0.83502  Biso   1.000  C
  C6       1.0000 0.11722  0.38273  0.83404  Biso   1.000  C
  C7       1.0000 0.24011  0.45055  0.30230  Biso   1.000  C
