# generated using pymatgen
data_C
_symmetry_space_group_name_H-M   'P 1'
_cell_length_a   2.50816460
_cell_length_b   2.56282097
_cell_length_c   8.40211051
_cell_angle_alpha   85.50814822
_cell_angle_beta   90.00000000
_cell_angle_gamma   60.70300733
_symmetry_Int_Tables_number   1
_chemical_formula_structural   C
_chemical_formula_sum   C8
_cell_volume   46.91029257
_cell_formula_units_Z   8
loop_
 _symmetry_equiv_pos_site_id
 _symmetry_equiv_pos_as_xyz
  1  'x, y, z'
loop_
 _atom_site_type_symbol
 _atom_site_label
 _atom_site_symmetry_multiplicity
 _atom_site_fract_x
 _atom_site_fract_y
 _atom_site_fract_z
 _atom_site_occupancy
  C  C1  1  0.004885  0.191664  0.134956  1
  C  C2  1  0.661263  0.878907  0.072708  1
  C  C3  1  0.951951  0.297532  0.825880  1
  C  C4  1  0.630303  0.940829  0.888588  1
  C  C5  1  0.405532  0.390372  0.562037  1
  C  C6  1  0.919519  0.362397  0.645033  1
  C  C7  1  0.377037  0.447362  0.381139  1
  C  C8  1  0.033968  0.133498  0.318696  1
