data_image0
_cell_length_a       2.62242
_cell_length_b       4.42372
_cell_length_c       4.79727
_cell_angle_alpha    106.08
_cell_angle_beta     103.464
_cell_angle_gamma    91.1083

_symmetry_space_group_name_H-M    "P 1"
_symmetry_int_tables_number       1

loop_
  _symmetry_equiv_pos_as_xyz
  'x, y, z'

loop_
  _atom_site_label
  _atom_site_occupancy
  _atom_site_fract_x
  _atom_site_fract_y
  _atom_site_fract_z
  _atom_site_thermal_displace_type
  _atom_site_B_iso_or_equiv
  _atom_site_type_symbol
  C1       1.0000 0.91974  0.27046  0.81003  Biso   1.000  C
  C2       1.0000 0.95744  0.52693  0.05412  Biso   1.000  C
  C3       1.0000 0.06070  0.84353  0.04741  Biso   1.000  C
  C4       1.0000 0.35704  0.03477  0.35826  Biso   1.000  C
  C5       1.0000 0.81648  0.95386  0.81674  Biso   1.000  C
  C6       1.0000 0.52014  0.76262  0.50589  Biso   1.000  C
  C7       1.0000 0.96652  0.55230  0.38627  Biso   1.000  C
  C8       1.0000 0.91066  0.24509  0.47788  Biso   1.000  C
