data_image0
_cell_length_a       3.78285
_cell_length_b       5.0875
_cell_length_c       5.12113
_cell_angle_alpha    119.783
_cell_angle_beta     88.9017
_cell_angle_gamma    92.2115

_symmetry_space_group_name_H-M    "P 1"
_symmetry_int_tables_number       1

loop_
  _symmetry_equiv_pos_as_xyz
  'x, y, z'

loop_
  _atom_site_label
  _atom_site_occupancy
  _atom_site_fract_x
  _atom_site_fract_y
  _atom_site_fract_z
  _atom_site_thermal_displace_type
  _atom_site_B_iso_or_equiv
  _atom_site_type_symbol
  C1       1.0000 0.01237  0.17140  0.06513  Biso   1.000  C
  C2       1.0000 0.80089  0.43190  0.06513  Biso   1.000  C
  C3       1.0000 0.77683  0.95681  0.13759  Biso   1.000  C
  C4       1.0000 0.55994  0.77200  0.87265  Biso   1.000  C
  C5       1.0000 0.25331  0.63883  0.87265  Biso   1.000  C
  C6       1.0000 0.03643  0.71895  0.13759  Biso   1.000  C
  C7       1.0000 0.77683  0.69188  0.60772  Biso   1.000  C
  C8       1.0000 0.80089  0.23943  0.68018  Biso   1.000  C
  C9       1.0000 0.01237  0.97892  0.68018  Biso   1.000  C
  C10      1.0000 0.03643  0.45401  0.60772  Biso   1.000  C
  C11      1.0000 0.28690  0.31152  0.33789  Biso   1.000  C
  C12      1.0000 0.52636  0.09931  0.40741  Biso   1.000  C
  C13      1.0000 0.52636  0.56455  0.33789  Biso   1.000  C
  C14      1.0000 0.28690  0.84628  0.40741  Biso   1.000  C
