# generated using pymatgen
data_C
_symmetry_space_group_name_H-M   'P 1'
_cell_length_a   3.66887909
_cell_length_b   5.04851158
_cell_length_c   5.74511087
_cell_angle_alpha   116.06398493
_cell_angle_beta   89.32092566
_cell_angle_gamma   91.54569887
_symmetry_Int_Tables_number   1
_chemical_formula_structural   C
_chemical_formula_sum   C14
_cell_volume   95.55654022
_cell_formula_units_Z   14
loop_
 _symmetry_equiv_pos_site_id
 _symmetry_equiv_pos_as_xyz
  1  'x, y, z'
loop_
 _atom_site_type_symbol
 _atom_site_label
 _atom_site_symmetry_multiplicity
 _atom_site_fract_x
 _atom_site_fract_y
 _atom_site_fract_z
 _atom_site_occupancy
  C  C1  1  0.002631  0.225376  0.157417  1
  C  C2  1  0.810628  0.470214  0.157417  1
  C  C3  1  0.778950  -0.046768  0.122730  1
  C  C4  1  0.567932  0.789280  0.872654  1
  C  C5  1  0.245324  0.621546  0.872654  1
  C  C6  1  0.034308  0.707672  0.122730  1
  C  C7  1  0.778950  0.703154  0.622577  1
  C  C8  1  0.810628  0.185450  0.587889  1
  C  C9  1  0.002631  0.940612  0.587889  1
  C  C10  1  0.034308  0.457595  0.622577  1
  C  C11  1  0.289775  0.330543  0.375141  1
  C  C12  1  0.523484  0.080283  0.370165  1
  C  C13  1  0.523484  0.582771  0.375141  1
  C  C14  1  0.289775  0.828055  0.370165  1
