# generated using pymatgen
data_C
_symmetry_space_group_name_H-M   'P 1'
_cell_length_a   2.56238314
_cell_length_b   2.50770098
_cell_length_c   8.40982847
_cell_angle_alpha   90.00000000
_cell_angle_beta   85.38289372
_cell_angle_gamma   60.70345771
_symmetry_Int_Tables_number   1
_chemical_formula_structural   C
_chemical_formula_sum   C8
_cell_volume   46.92612548
_cell_formula_units_Z   8
loop_
 _symmetry_equiv_pos_site_id
 _symmetry_equiv_pos_as_xyz
  1  'x, y, z'
loop_
 _atom_site_type_symbol
 _atom_site_label
 _atom_site_symmetry_multiplicity
 _atom_site_fract_x
 _atom_site_fract_y
 _atom_site_fract_z
 _atom_site_occupancy
  C  C1  1  0.664426  0.206167  0.135399  1
  C  C2  1  0.638009  0.719376  0.218350  1
  C  C3  1  0.722945  0.176908  0.954687  1
  C  C4  1  0.409176  0.833791  0.892008  1
  C  C5  1  0.829251  0.123754  0.645625  1
  C  C6  1  0.473183  0.801789  0.708124  1
  C  C7  1  0.893260  0.091750  0.461740  1
  C  C8  1  0.579490  0.748636  0.399061  1
