# generated using pymatgen
data_C
_symmetry_space_group_name_H-M   'P 1'
_cell_length_a   3.55337292
_cell_length_b   3.61947950
_cell_length_c   4.13796144
_cell_angle_alpha   89.32955863
_cell_angle_beta   77.71074375
_cell_angle_gamma   119.69431398
_symmetry_Int_Tables_number   1
_chemical_formula_structural   C
_chemical_formula_sum   C6
_cell_volume   44.73940601
_cell_formula_units_Z   6
loop_
 _symmetry_equiv_pos_site_id
 _symmetry_equiv_pos_as_xyz
  1  'x, y, z'
loop_
 _atom_site_type_symbol
 _atom_site_label
 _atom_site_symmetry_multiplicity
 _atom_site_fract_x
 _atom_site_fract_y
 _atom_site_fract_z
 _atom_site_occupancy
  C  C1  1  0.089966  0.680425  0.560431  1
  C  C2  1  0.299199  0.472793  0.414444  1
  C  C3  1  0.838777  0.569602  0.891947  1
  C  C4  1  0.777386  0.849827  0.139063  1
  C  C5  1  0.610534  0.139512  0.055529  1
  C  C6  1  0.159032  0.032723  0.311538  1
