# generated using pymatgen
data_C
_symmetry_space_group_name_H-M   'P 1'
_cell_length_a   3.55288279
_cell_length_b   3.62012986
_cell_length_c   4.14283849
_cell_angle_alpha   90.66585645
_cell_angle_beta   102.37643118
_cell_angle_gamma   119.70575456
_symmetry_Int_Tables_number   1
_chemical_formula_structural   C
_chemical_formula_sum   C6
_cell_volume   44.76845205
_cell_formula_units_Z   6
loop_
 _symmetry_equiv_pos_site_id
 _symmetry_equiv_pos_as_xyz
  1  'x, y, z'
loop_
 _atom_site_type_symbol
 _atom_site_label
 _atom_site_symmetry_multiplicity
 _atom_site_fract_x
 _atom_site_fract_y
 _atom_site_fract_z
 _atom_site_occupancy
  C  C1  1  0.413702  0.902404  0.894019  1
  C  C2  1  0.622876  0.694674  0.040119  1
  C  C3  1  0.163872  0.792154  0.562151  1
  C  C4  1  0.935545  0.362001  0.398484  1
  C  C5  1  0.101993  0.072053  0.315174  1
  C  C6  1  0.483165  0.254746  0.142743  1
