# generated using pymatgen
data_C
_symmetry_space_group_name_H-M   'P 1'
_cell_length_a   2.53331770
_cell_length_b   4.59235910
_cell_length_c   7.04361564
_cell_angle_alpha   77.69734893
_cell_angle_beta   79.64009699
_cell_angle_gamma   73.98918636
_symmetry_Int_Tables_number   1
_chemical_formula_structural   C
_chemical_formula_sum   C8
_cell_volume   76.31520933
_cell_formula_units_Z   8
loop_
 _symmetry_equiv_pos_site_id
 _symmetry_equiv_pos_as_xyz
  1  'x, y, z'
loop_
 _atom_site_type_symbol
 _atom_site_label
 _atom_site_symmetry_multiplicity
 _atom_site_fract_x
 _atom_site_fract_y
 _atom_site_fract_z
 _atom_site_occupancy
  C  C1  1  0.587865  0.450269  0.970367  1
  C  C2  1  0.697644  0.429811  0.771267  1
  C  C3  1  0.835301  0.337891  0.587873  1
  C  C4  1  0.651068  0.178879  0.115359  1
  C  C5  1  0.541290  0.199336  0.314458  1
  C  C6  1  0.403632  0.291257  0.497851  1
  C  C7  1  0.411966  0.743966  0.028476  1
  C  C8  1  0.826967  0.885182  0.057250  1
