data_image0
_cell_length_a       2.54722
_cell_length_b       4.27115
_cell_length_c       5.62926
_cell_angle_alpha    98.7952
_cell_angle_beta     90.5533
_cell_angle_gamma    90.5523

_symmetry_space_group_name_H-M    "P 1"
_symmetry_int_tables_number       1

loop_
  _symmetry_equiv_pos_as_xyz
  'x, y, z'

loop_
  _atom_site_label
  _atom_site_occupancy
  _atom_site_fract_x
  _atom_site_fract_y
  _atom_site_fract_z
  _atom_site_thermal_displace_type
  _atom_site_B_iso_or_equiv
  _atom_site_type_symbol
  C1       1.0000 0.73298  0.40918  0.28370  Biso   1.000  C
  C2       1.0000 0.86369  0.43181  0.01801  Biso   1.000  C
  C3       1.0000 0.10070  0.14206  0.64905  Biso   1.000  C
  C4       1.0000 0.24862  0.45046  0.65799  Biso   1.000  C
  C5       1.0000 0.97322  0.08756  0.90134  Biso   1.000  C
  C6       1.0000 0.22765  0.56530  0.41630  Biso   1.000  C
  C7       1.0000 0.13909  0.93359  0.40769  Biso   1.000  C
  C8       1.0000 0.48169  0.93439  0.99433  Biso   1.000  C
  C9       1.0000 0.37172  0.58357  0.92138  Biso   1.000  C
  C10      1.0000 0.62125  0.03928  0.27382  Biso   1.000  C
