# generated using pymatgen
data_C
_symmetry_space_group_name_H-M   'P 1'
_cell_length_a   3.66305911
_cell_length_b   4.32616887
_cell_length_c   5.25751540
_cell_angle_alpha   89.99524120
_cell_angle_beta   78.55268341
_cell_angle_gamma   89.58944045
_symmetry_Int_Tables_number   1
_chemical_formula_structural   C
_chemical_formula_sum   C10
_cell_volume   81.65638599
_cell_formula_units_Z   10
loop_
 _symmetry_equiv_pos_site_id
 _symmetry_equiv_pos_as_xyz
  1  'x, y, z'
loop_
 _atom_site_type_symbol
 _atom_site_label
 _atom_site_symmetry_multiplicity
 _atom_site_fract_x
 _atom_site_fract_y
 _atom_site_fract_z
 _atom_site_occupancy
  C  C1  1  0.484955  0.426476  0.150254  1
  C  C2  1  0.559361  0.740493  0.197924  1
  C  C3  1  0.927304  0.855541  0.113403  1
  C  C4  1  0.489097  0.328352  0.901678  1
  C  C5  1  0.203177  0.230676  0.787009  1
  C  C6  1  0.129756  0.411571  0.582473  1
  C  C7  1  0.057114  0.926377  0.834097  1
  C  C8  1  0.079009  0.743880  0.593490  1
  C  C9  1  0.251951  0.256293  0.344653  1
  C  C10  1  0.192788  0.913784  0.315714  1
