data_image0
_cell_length_a       2.67209
_cell_length_b       4.31376
_cell_length_c       5.96587
_cell_angle_alpha    89.7261
_cell_angle_beta     78.2674
_cell_angle_gamma    88.7895

_symmetry_space_group_name_H-M    "P 1"
_symmetry_int_tables_number       1

loop_
  _symmetry_equiv_pos_as_xyz
  'x, y, z'

loop_
  _atom_site_label
  _atom_site_occupancy
  _atom_site_fract_x
  _atom_site_fract_y
  _atom_site_fract_z
  _atom_site_thermal_displace_type
  _atom_site_B_iso_or_equiv
  _atom_site_type_symbol
  C1       1.0000 0.44418  0.42341  0.17744  Biso   1.000  C
  C2       1.0000 0.45149  0.74307  0.17750  Biso   1.000  C
  C3       1.0000 0.55958  0.90372  0.95656  Biso   1.000  C
  C4       1.0000 0.54895  0.26288  0.95652  Biso   1.000  C
  C5       1.0000 0.11540  0.26297  0.80758  Biso   1.000  C
  C6       1.0000 0.22339  0.42361  0.58664  Biso   1.000  C
  C7       1.0000 0.12603  0.90381  0.80762  Biso   1.000  C
  C8       1.0000 0.23070  0.74328  0.58670  Biso   1.000  C
  C9       1.0000 0.33477  0.24974  0.38206  Biso   1.000  C
  C10      1.0000 0.34002  0.91695  0.38207  Biso   1.000  C
