data_image0
_cell_length_a       3.37485
_cell_length_b       3.37485
_cell_length_c       4.6945
_cell_angle_alpha    112.764
_cell_angle_beta     112.764
_cell_angle_gamma    90.6598

_symmetry_space_group_name_H-M    "P 1"
_symmetry_int_tables_number       1

loop_
  _symmetry_equiv_pos_as_xyz
  'x, y, z'

loop_
  _atom_site_label
  _atom_site_occupancy
  _atom_site_fract_x
  _atom_site_fract_y
  _atom_site_fract_z
  _atom_site_thermal_displace_type
  _atom_site_B_iso_or_equiv
  _atom_site_type_symbol
  C1       1.0000 0.75120  0.12746  0.12214  Biso   1.000  C
  C2       1.0000 0.55544  0.93170  0.23859  Biso   1.000  C
  C3       1.0000 0.26292  0.54549  0.07449  Biso   1.000  C
  C4       1.0000 0.13741  0.41997  0.28624  Biso   1.000  C
  C5       1.0000 0.20066  0.80039  0.56157  Biso   1.000  C
  C6       1.0000 0.88251  0.48224  0.79916  Biso   1.000  C
  C7       1.0000 0.60210  0.08080  0.68036  Biso   1.000  C
  C8       1.0000 0.88964  0.79326  0.68036  Biso   1.000  C
