# generated using pymatgen
data_C
_symmetry_space_group_name_H-M   'P 1'
_cell_length_a   3.63904189
_cell_length_b   3.63904189
_cell_length_c   5.70309211
_cell_angle_alpha   105.91757458
_cell_angle_beta   105.91757459
_cell_angle_gamma   102.18737417
_symmetry_Int_Tables_number   1
_chemical_formula_structural   C
_chemical_formula_sum   C8
_cell_volume   66.41145301
_cell_formula_units_Z   8
loop_
 _symmetry_equiv_pos_site_id
 _symmetry_equiv_pos_as_xyz
  1  'x, y, z'
loop_
 _atom_site_type_symbol
 _atom_site_label
 _atom_site_symmetry_multiplicity
 _atom_site_fract_x
 _atom_site_fract_y
 _atom_site_fract_z
 _atom_site_occupancy
  C  C1  1  0.834273  0.164069  0.243462  1
  C  C2  1  0.518830  0.848627  0.117267  1
  C  C3  1  0.145977  0.598388  0.069553  1
  C  C4  1  0.084510  0.536920  0.291176  1
  C  C5  1  0.231971  0.806347  0.558010  1
  C  C6  1  0.876552  0.450928  0.802720  1
  C  C7  1  0.665039  0.017859  0.680364  1
  C  C8  1  0.924720  0.758177  0.680364  1
