data_image0
_cell_length_a       2.67567
_cell_length_b       3.68205
_cell_length_c       5.95798
_cell_angle_alpha    107.999
_cell_angle_beta     102.976
_cell_angle_gamma    90

_symmetry_space_group_name_H-M    "P 1"
_symmetry_int_tables_number       1

loop_
  _symmetry_equiv_pos_as_xyz
  'x, y, z'

loop_
  _atom_site_label
  _atom_site_occupancy
  _atom_site_fract_x
  _atom_site_fract_y
  _atom_site_fract_z
  _atom_site_thermal_displace_type
  _atom_site_B_iso_or_equiv
  _atom_site_type_symbol
  C1       1.0000 0.76038  0.35403  0.58418  Biso   1.000  C
  C2       1.0000 0.76038  0.97893  0.58418  Biso   1.000  C
  C3       1.0000 0.88479  0.98273  0.83300  Biso   1.000  C
  C4       1.0000 0.88479  0.59906  0.83300  Biso   1.000  C
  C5       1.0000 0.96470  0.37080  0.99281  Biso   1.000  C
  C6       1.0000 0.09647  0.50256  0.25634  Biso   1.000  C
  C7       1.0000 0.66932  0.57542  0.40205  Biso   1.000  C
