# generated using pymatgen
data_C
_symmetry_space_group_name_H-M   'P 1'
_cell_length_a   2.67478985
_cell_length_b   3.75708414
_cell_length_c   5.88884183
_cell_angle_alpha   108.60247555
_cell_angle_beta   103.12678558
_cell_angle_gamma   89.99999999
_symmetry_Int_Tables_number   1
_chemical_formula_structural   C
_chemical_formula_sum   C7
_cell_volume   54.45344523
_cell_formula_units_Z   7
loop_
 _symmetry_equiv_pos_site_id
 _symmetry_equiv_pos_as_xyz
  1  'x, y, z'
loop_
 _atom_site_type_symbol
 _atom_site_label
 _atom_site_symmetry_multiplicity
 _atom_site_fract_x
 _atom_site_fract_y
 _atom_site_fract_z
 _atom_site_occupancy
  C  C1  1  0.758162  0.351881  0.579734  1
  C  C2  1  0.758162  -0.023363  0.579734  1
  C  C3  1  0.888336  -0.018237  0.840083  1
  C  C4  1  0.888336  0.607103  0.840083  1
  C  C5  1  0.965486  0.371585  -0.005614  1
  C  C6  1  0.095069  0.501167  0.253552  1
  C  C7  1  0.667286  0.573383  0.397983  1
