data_image0
_cell_length_a       3.24395
_cell_length_b       4.81768
_cell_length_c       4.76802
_cell_angle_alpha    71.1508
_cell_angle_beta     71.0522
_cell_angle_gamma    69.3882

_symmetry_space_group_name_H-M    "P 1"
_symmetry_int_tables_number       1

loop_
  _symmetry_equiv_pos_as_xyz
  'x, y, z'

loop_
  _atom_site_label
  _atom_site_occupancy
  _atom_site_fract_x
  _atom_site_fract_y
  _atom_site_fract_z
  _atom_site_thermal_displace_type
  _atom_site_B_iso_or_equiv
  _atom_site_type_symbol
  C1       1.0000 0.80839  0.43521  0.45687  Biso   1.000  C
  C2       1.0000 0.59259  0.27673  0.75061  Biso   1.000  C
  C3       1.0000 0.58338  0.76454  0.46225  Biso   1.000  C
  C4       1.0000 0.40220  0.98835  0.23840  Biso   1.000  C
  C5       1.0000 0.17719  0.31767  0.24379  Biso   1.000  C
  C6       1.0000 0.39299  0.47616  0.95004  Biso   1.000  C
  C7       1.0000 0.47359  0.76997  0.79155  Biso   1.000  C
  C8       1.0000 0.51199  0.98291  0.90910  Biso   1.000  C
