# generated using pymatgen
data_C
_symmetry_space_group_name_H-M   'P 1'
_cell_length_a   2.50522688
_cell_length_b   2.70884686
_cell_length_c   5.36093520
_cell_angle_alpha   77.88904999
_cell_angle_beta   83.82541615
_cell_angle_gamma   77.08265129
_symmetry_Int_Tables_number   1
_chemical_formula_structural   C
_chemical_formula_sum   C5
_cell_volume   34.60058684
_cell_formula_units_Z   5
loop_
 _symmetry_equiv_pos_site_id
 _symmetry_equiv_pos_as_xyz
  1  'x, y, z'
loop_
 _atom_site_type_symbol
 _atom_site_label
 _atom_site_symmetry_multiplicity
 _atom_site_fract_x
 _atom_site_fract_y
 _atom_site_fract_z
 _atom_site_occupancy
  C  C1  1  0.300266  0.512830  0.864949  1
  C  C2  1  0.816858  0.564051  0.730097  1
  C  C3  1  0.825043  0.705530  0.461326  1
  C  C4  1  0.310044  0.382224  0.125412  1
  C  C5  1  0.344734  0.839496  0.293725  1
