# generated using pymatgen
data_C
_symmetry_space_group_name_H-M   'P 1'
_cell_length_a   3.59197404
_cell_length_b   3.59197404
_cell_length_c   5.59952257
_cell_angle_alpha   89.09163829
_cell_angle_beta   90.90836171
_cell_angle_gamma   101.24198001
_symmetry_Int_Tables_number   1
_chemical_formula_structural   C
_chemical_formula_sum   C8
_cell_volume   70.84546317
_cell_formula_units_Z   8
loop_
 _symmetry_equiv_pos_site_id
 _symmetry_equiv_pos_as_xyz
  1  'x, y, z'
loop_
 _atom_site_type_symbol
 _atom_site_label
 _atom_site_symmetry_multiplicity
 _atom_site_fract_x
 _atom_site_fract_y
 _atom_site_fract_z
 _atom_site_occupancy
  C  C1  1  0.681253  0.704450  0.889140  1
  C  C2  1  0.401012  0.473980  0.016902  1
  C  C3  1  0.182050  0.203650  0.158843  1
  C  C4  1  0.951583  0.923411  0.031080  1
  C  C5  1  0.188140  0.211896  0.413222  1
  C  C6  1  0.689497  0.710540  0.634759  1
  C  C7  1  0.822229  0.081425  0.524884  1
  C  C8  1  0.559026  0.344629  0.523099  1
