# generated using pymatgen
data_C
_symmetry_space_group_name_H-M   'P 1'
_cell_length_a   4.00675823
_cell_length_b   4.61622169
_cell_length_c   4.77983250
_cell_angle_alpha   92.13191086
_cell_angle_beta   109.46835934
_cell_angle_gamma   111.94124645
_symmetry_Int_Tables_number   1
_chemical_formula_structural   C
_chemical_formula_sum   C8
_cell_volume   75.98232017
_cell_formula_units_Z   8
loop_
 _symmetry_equiv_pos_site_id
 _symmetry_equiv_pos_as_xyz
  1  'x, y, z'
loop_
 _atom_site_type_symbol
 _atom_site_label
 _atom_site_symmetry_multiplicity
 _atom_site_fract_x
 _atom_site_fract_y
 _atom_site_fract_z
 _atom_site_occupancy
  C  C1  1  0.667953  0.147887  0.089664  1
  C  C2  1  0.848550  0.433492  0.299460  1
  C  C3  1  0.381643  0.149784  0.813094  1
  C  C4  1  0.491104  0.438325  0.710791  1
  C  C5  1  0.769065  0.753476  0.820315  1
  C  C6  1  0.799339  0.901556  0.102655  1
  C  C7  1  0.898759  0.753254  0.357552  1
  C  C8  1  0.015778  0.895707  0.663415  1
