# generated using pymatgen
data_C
_symmetry_space_group_name_H-M   'P 1'
_cell_length_a   2.52824363
_cell_length_b   5.76426448
_cell_length_c   6.47158177
_cell_angle_alpha   91.60624164
_cell_angle_beta   90.93277649
_cell_angle_gamma   96.63039610
_symmetry_Int_Tables_number   1
_chemical_formula_structural   C
_chemical_formula_sum   C13
_cell_volume   93.62766800
_cell_formula_units_Z   13
loop_
 _symmetry_equiv_pos_site_id
 _symmetry_equiv_pos_as_xyz
  1  'x, y, z'
loop_
 _atom_site_type_symbol
 _atom_site_label
 _atom_site_symmetry_multiplicity
 _atom_site_fract_x
 _atom_site_fract_y
 _atom_site_fract_z
 _atom_site_occupancy
  C  C1  1  -0.021714  0.478083  0.976105  1
  C  C2  1  0.903601  0.394632  0.784778  1
  C  C3  1  0.326738  0.951121  0.934298  1
  C  C4  1  0.348106  0.018504  0.719784  1
  C  C5  1  0.825531  0.826621  0.429629  1
  C  C6  1  0.339786  0.874076  0.533045  1
  C  C7  1  0.789481  0.773037  0.213602  1
  C  C8  1  0.257791  0.739226  0.078807  1
  C  C9  1  0.352485  0.149842  0.077013  1
  C  C10  1  0.378786  0.336867  0.460378  1
  C  C11  1  0.877947  0.337799  0.357710  1
  C  C12  1  0.881515  0.278962  0.133041  1
  C  C13  1  0.374082  0.289658  0.686395  1
