# generated using pymatgen
data_C
_symmetry_space_group_name_H-M   'P 1'
_cell_length_a   2.51883529
_cell_length_b   2.53577964
_cell_length_c   9.92151977
_cell_angle_alpha   88.67625758
_cell_angle_beta   88.43789426
_cell_angle_gamma   82.25027534
_symmetry_Int_Tables_number   1
_chemical_formula_structural   C
_chemical_formula_sum   C10
_cell_volume   62.75663959
_cell_formula_units_Z   10
loop_
 _symmetry_equiv_pos_site_id
 _symmetry_equiv_pos_as_xyz
  1  'x, y, z'
loop_
 _atom_site_type_symbol
 _atom_site_label
 _atom_site_symmetry_multiplicity
 _atom_site_fract_x
 _atom_site_fract_y
 _atom_site_fract_z
 _atom_site_occupancy
  C  C1  1  0.256649  0.059248  0.109068  1
  C  C2  1  0.244030  0.553633  0.192075  1
  C  C3  1  0.182457  0.521115  0.338885  1
  C  C4  1  0.773610  0.572628  0.928363  1
  C  C5  1  0.764190  0.065352  0.017801  1
  C  C6  1  0.303795  0.099545  0.611239  1
  C  C7  1  0.290331  0.085720  0.754178  1
  C  C8  1  0.808564  0.114449  0.541642  1
  C  C9  1  0.282213  0.579325  0.837066  1
  C  C10  1  0.836837  0.176114  0.393710  1
