data_image0
_cell_length_a       3.53274
_cell_length_b       3.55366
_cell_length_c       4.71477
_cell_angle_alpha    67.7328
_cell_angle_beta     86.5877
_cell_angle_gamma    84.3624

_symmetry_space_group_name_H-M    "P 1"
_symmetry_int_tables_number       1

loop_
  _symmetry_equiv_pos_as_xyz
  'x, y, z'

loop_
  _atom_site_label
  _atom_site_occupancy
  _atom_site_fract_x
  _atom_site_fract_y
  _atom_site_fract_z
  _atom_site_thermal_displace_type
  _atom_site_B_iso_or_equiv
  _atom_site_type_symbol
  C1       1.0000 0.06940  0.22784  0.35541  Biso   1.000  C
  C2       1.0000 0.83820  0.37416  0.54285  Biso   1.000  C
  C3       1.0000 0.32583  0.90561  0.51628  Biso   1.000  C
  C4       1.0000 0.58177  0.69638  0.38199  Biso   1.000  C
  C5       1.0000 0.92372  0.15057  0.87045  Biso   1.000  C
  C6       1.0000 0.98387  0.45143  0.02781  Biso   1.000  C
  C7       1.0000 0.64089  0.78597  0.03754  Biso   1.000  C
  C8       1.0000 0.26671  0.81602  0.86072  Biso   1.000  C
