# generated using pymatgen
data_C
_symmetry_space_group_name_H-M   'P 1'
_cell_length_a   2.51632051
_cell_length_b   3.50531970
_cell_length_c   6.74856854
_cell_angle_alpha   98.21405020
_cell_angle_beta   93.35774103
_cell_angle_gamma   110.33280326
_symmetry_Int_Tables_number   1
_chemical_formula_structural   C
_chemical_formula_sum   C8
_cell_volume   54.86731653
_cell_formula_units_Z   8
loop_
 _symmetry_equiv_pos_site_id
 _symmetry_equiv_pos_as_xyz
  1  'x, y, z'
loop_
 _atom_site_type_symbol
 _atom_site_label
 _atom_site_symmetry_multiplicity
 _atom_site_fract_x
 _atom_site_fract_y
 _atom_site_fract_z
 _atom_site_occupancy
  C  C1  1  0.831347  0.644888  0.933292  1
  C  C2  1  0.259395  0.525117  0.838467  1
  C  C3  1  -0.005195  0.922545  0.127729  1
  C  C4  1  0.603770  0.129646  0.189924  1
  C  C5  1  0.484021  0.043738  0.579379  1
  C  C6  1  0.221030  0.617521  0.484602  1
  C  C7  1  0.833785  0.508971  0.315443  1
  C  C8  1  0.117742  0.300269  0.621693  1
