# generated using pymatgen
data_C
_symmetry_space_group_name_H-M   'P 1'
_cell_length_a   3.49907042
_cell_length_b   3.43094600
_cell_length_c   7.87404707
_cell_angle_alpha   83.46475845
_cell_angle_beta   82.82307789
_cell_angle_gamma   86.59721893
_symmetry_Int_Tables_number   1
_chemical_formula_structural   C
_chemical_formula_sum   C13
_cell_volume   93.08110188
_cell_formula_units_Z   13
loop_
 _symmetry_equiv_pos_site_id
 _symmetry_equiv_pos_as_xyz
  1  'x, y, z'
loop_
 _atom_site_type_symbol
 _atom_site_label
 _atom_site_symmetry_multiplicity
 _atom_site_fract_x
 _atom_site_fract_y
 _atom_site_fract_z
 _atom_site_occupancy
  C  C1  1  0.134963  0.574732  0.905526  1
  C  C2  1  0.000006  0.797036  0.751563  1
  C  C3  1  0.511319  0.120515  0.069377  1
  C  C4  1  0.723483  0.339932  0.168357  1
  C  C5  1  0.753461  0.143396  0.338419  1
  C  C6  1  0.123711  0.967356  0.338644  1
  C  C7  1  0.451458  0.270457  0.899797  1
  C  C8  1  0.665494  0.119299  0.747799  1
  C  C9  1  0.270895  0.682725  0.601258  1
  C  C10  1  0.467655  0.304570  0.599806  1
  C  C11  1  0.404005  1.025549  0.467597  1
  C  C12  1  0.243735  0.853980  0.168263  1
  C  C13  1  0.003056  0.619636  0.084242  1
