data_image0
_cell_length_a       4.0952
_cell_length_b       4.88492
_cell_length_c       4.88492
_cell_angle_alpha    94.6796
_cell_angle_beta     92.9837
_cell_angle_gamma    92.9837

_symmetry_space_group_name_H-M    "P 1"
_symmetry_int_tables_number       1

loop_
  _symmetry_equiv_pos_as_xyz
  'x, y, z'

loop_
  _atom_site_label
  _atom_site_occupancy
  _atom_site_fract_x
  _atom_site_fract_y
  _atom_site_fract_z
  _atom_site_thermal_displace_type
  _atom_site_B_iso_or_equiv
  _atom_site_type_symbol
  C1       1.0000 0.96907  0.47338  0.31769  Biso   1.000  C
  C2       1.0000 0.18800  0.35182  0.19613  Biso   1.000  C
  C3       1.0000 0.73832  0.60725  0.45156  Biso   1.000  C
  C4       1.0000 0.41875  0.21795  0.06226  Biso   1.000  C
  C5       1.0000 0.53785  0.94871  0.12502  Biso   1.000  C
  C6       1.0000 0.61922  0.87649  0.38880  Biso   1.000  C
  C7       1.0000 0.53785  0.28071  0.79302  Biso   1.000  C
  C8       1.0000 0.61922  0.54449  0.72080  Biso   1.000  C
  C9       1.0000 0.57853  0.01359  0.65592  Biso   1.000  C
  C10      1.0000 0.57853  0.81161  0.85790  Biso   1.000  C
