# generated using pymatgen
data_C
_symmetry_space_group_name_H-M   'P 1'
_cell_length_a   4.32816903
_cell_length_b   4.84965156
_cell_length_c   4.84965156
_cell_angle_alpha   93.57284040
_cell_angle_beta   93.13224028
_cell_angle_gamma   93.13224044
_symmetry_Int_Tables_number   1
_chemical_formula_structural   C
_chemical_formula_sum   C10
_cell_volume   101.27287423
_cell_formula_units_Z   10
loop_
 _symmetry_equiv_pos_site_id
 _symmetry_equiv_pos_as_xyz
  1  'x, y, z'
loop_
 _atom_site_type_symbol
 _atom_site_label
 _atom_site_symmetry_multiplicity
 _atom_site_fract_x
 _atom_site_fract_y
 _atom_site_fract_z
 _atom_site_occupancy
  C  C1  1  -0.031725  0.476090  0.320401  1
  C  C2  1  0.188790  0.349107  0.193417  1
  C  C3  1  0.738245  0.609531  0.453840  1
  C  C4  1  0.418820  0.215668  0.059978  1
  C  C5  1  0.527901  0.947182  0.125268  1
  C  C6  1  0.629163  0.878017  0.388549  1
  C  C7  1  0.527901  0.280959  0.791491  1
  C  C8  1  0.629163  0.544240  0.722327  1
  C  C9  1  0.578531  0.019132  0.650376  1
  C  C10  1  0.578533  0.806066  0.863442  1
