# generated using pymatgen
data_C
_symmetry_space_group_name_H-M   'P 1'
_cell_length_a   2.63311571
_cell_length_b   3.78443494
_cell_length_c   4.76792837
_cell_angle_alpha   112.02985395
_cell_angle_beta   105.78636992
_cell_angle_gamma   89.99574614
_symmetry_Int_Tables_number   1
_chemical_formula_structural   C
_chemical_formula_sum   C6
_cell_volume   42.10382402
_cell_formula_units_Z   6
loop_
 _symmetry_equiv_pos_site_id
 _symmetry_equiv_pos_as_xyz
  1  'x, y, z'
loop_
 _atom_site_type_symbol
 _atom_site_label
 _atom_site_symmetry_multiplicity
 _atom_site_fract_x
 _atom_site_fract_y
 _atom_site_fract_z
 _atom_site_occupancy
  C  C1  1  0.168853  0.465521  0.196092  1
  C  C2  1  0.170979  0.097439  0.200494  1
  C  C3  1  0.331481  0.751285  0.520135  1
  C  C4  1  0.455449  0.587046  0.768060  1
  C  C5  1  0.332337  0.115265  0.522253  1
  C  C6  1  0.053084  0.680402  0.964480  1
