data_image0
_cell_length_a       2.70418
_cell_length_b       3.72197
_cell_length_c       4.77059
_cell_angle_alpha    112.964
_cell_angle_beta     106.458
_cell_angle_gamma    89.9862

_symmetry_space_group_name_H-M    "P 1"
_symmetry_int_tables_number       1

loop_
  _symmetry_equiv_pos_as_xyz
  'x, y, z'

loop_
  _atom_site_label
  _atom_site_occupancy
  _atom_site_fract_x
  _atom_site_fract_y
  _atom_site_fract_z
  _atom_site_thermal_displace_type
  _atom_site_B_iso_or_equiv
  _atom_site_type_symbol
  C1       1.0000 0.17174  0.47323  0.20141  Biso   1.000  C
  C2       1.0000 0.17171  0.09857  0.20141  Biso   1.000  C
  C3       1.0000 0.33232  0.75909  0.52243  Biso   1.000  C
  C4       1.0000 0.44845  0.56254  0.75467  Biso   1.000  C
  C5       1.0000 0.33235  0.13375  0.52243  Biso   1.000  C
  C6       1.0000 0.05561  0.66978  0.96917  Biso   1.000  C
