# generated using pymatgen
data_C
_symmetry_space_group_name_H-M   'P 1'
_cell_length_a   4.08921442
_cell_length_b   3.72998531
_cell_length_c   5.96950072
_cell_angle_alpha   81.59801354
_cell_angle_beta   78.79547667
_cell_angle_gamma   66.68112852
_symmetry_Int_Tables_number   1
_chemical_formula_structural   C
_chemical_formula_sum   C10
_cell_volume   81.77759634
_cell_formula_units_Z   10
loop_
 _symmetry_equiv_pos_site_id
 _symmetry_equiv_pos_as_xyz
  1  'x, y, z'
loop_
 _atom_site_type_symbol
 _atom_site_label
 _atom_site_symmetry_multiplicity
 _atom_site_fract_x
 _atom_site_fract_y
 _atom_site_fract_z
 _atom_site_occupancy
  C  C1  1  0.481960  0.199830  0.578004  1
  C  C2  1  -0.145666  0.934477  0.567817  1
  C  C3  1  0.005440  0.754531  0.770757  1
  C  C4  1  -0.066880  0.942864  0.970265  1
  C  C5  1  0.682995  0.870794  0.143683  1
  C  C6  1  0.150800  0.146025  -0.006576  1
  C  C7  1  0.247444  0.354042  0.787093  1
  C  C8  1  0.299123  0.369710  0.374406  1
  C  C9  1  0.291239  0.067759  0.223247  1
  C  C10  1  0.121869  0.793915  0.369562  1
