# generated using pymatgen
data_C
_symmetry_space_group_name_H-M   'P 1'
_cell_length_a   2.52934846
_cell_length_b   3.65416184
_cell_length_c   5.86621991
_cell_angle_alpha   108.15346269
_cell_angle_beta   102.45010800
_cell_angle_gamma   89.99921251
_symmetry_Int_Tables_number   1
_chemical_formula_structural   C
_chemical_formula_sum   C8
_cell_volume   50.17716819
_cell_formula_units_Z   8
loop_
 _symmetry_equiv_pos_site_id
 _symmetry_equiv_pos_as_xyz
  1  'x, y, z'
loop_
 _atom_site_type_symbol
 _atom_site_label
 _atom_site_symmetry_multiplicity
 _atom_site_fract_x
 _atom_site_fract_y
 _atom_site_fract_z
 _atom_site_occupancy
  C  C1  1  0.863759  0.707637  0.323590  1
  C  C2  1  0.365672  0.468886  0.327418  1
  C  C3  1  0.245852  0.089697  0.087784  1
  C  C4  1  0.743929  0.847117  0.083955  1
  C  C5  1  0.471504  0.303009  0.539128  1
  C  C6  1  0.145226  0.264133  0.886486  1
  C  C7  1  0.964413  0.083475  0.524869  1
  C  C8  1  0.638099  0.469477  0.872279  1
