# generated using pymatgen
data_C
_symmetry_space_group_name_H-M   'P 1'
_cell_length_a   2.68266733
_cell_length_b   3.77079262
_cell_length_c   5.81160065
_cell_angle_alpha   107.11085711
_cell_angle_beta   102.60216499
_cell_angle_gamma   90.42534438
_symmetry_Int_Tables_number   1
_chemical_formula_structural   C
_chemical_formula_sum   C7
_cell_volume   54.67122990
_cell_formula_units_Z   7
loop_
 _symmetry_equiv_pos_site_id
 _symmetry_equiv_pos_as_xyz
  1  'x, y, z'
loop_
 _atom_site_type_symbol
 _atom_site_label
 _atom_site_symmetry_multiplicity
 _atom_site_fract_x
 _atom_site_fract_y
 _atom_site_fract_z
 _atom_site_occupancy
  C  C1  1  0.674814  0.310963  0.198803  1
  C  C2  1  0.673091  0.936560  0.194564  1
  C  C3  1  0.803421  0.918590  0.453248  1
  C  C4  1  0.803462  0.553204  0.454059  1
  C  C5  1  0.900568  0.284848  0.646795  1
  C  C6  1  0.466676  0.372013  0.783637  1
  C  C7  1  0.595166  0.547458  0.041221  1
