# generated using pymatgen
data_C
_symmetry_space_group_name_H-M   'P 1'
_cell_length_a   3.61996639
_cell_length_b   3.68671496
_cell_length_c   4.65002879
_cell_angle_alpha   82.28432250
_cell_angle_beta   79.46283534
_cell_angle_gamma   89.41581511
_symmetry_Int_Tables_number   1
_chemical_formula_structural   C
_chemical_formula_sum   C7
_cell_volume   60.45282624
_cell_formula_units_Z   7
loop_
 _symmetry_equiv_pos_site_id
 _symmetry_equiv_pos_as_xyz
  1  'x, y, z'
loop_
 _atom_site_type_symbol
 _atom_site_label
 _atom_site_symmetry_multiplicity
 _atom_site_fract_x
 _atom_site_fract_y
 _atom_site_fract_z
 _atom_site_occupancy
  C  C1  1  0.770309  0.310731  0.736999  1
  C  C2  1  0.780555  0.060209  0.529611  1
  C  C3  1  0.110389  0.004557  0.319325  1
  C  C4  1  0.286175  0.353479  0.180780  1
  C  C5  1  0.407459  0.412000  0.872688  1
  C  C6  1  0.134048  0.488804  0.687312  1
  C  C7  1  0.242364  0.638940  0.372042  1
