data_image0
_cell_length_a       3.64875
_cell_length_b       3.76065
_cell_length_c       4.78559
_cell_angle_alpha    66.8587
_cell_angle_beta     81.9912
_cell_angle_gamma    58.9728

_symmetry_space_group_name_H-M    "P 1"
_symmetry_int_tables_number       1

loop_
  _symmetry_equiv_pos_as_xyz
  'x, y, z'

loop_
  _atom_site_label
  _atom_site_occupancy
  _atom_site_fract_x
  _atom_site_fract_y
  _atom_site_fract_z
  _atom_site_thermal_displace_type
  _atom_site_B_iso_or_equiv
  _atom_site_type_symbol
  C1       1.0000 0.77747  0.30875  0.74323  Biso   1.000  C
  C2       1.0000 0.00552  0.94576  0.64126  Biso   1.000  C
  C3       1.0000 0.17088  0.00963  0.32656  Biso   1.000  C
  C4       1.0000 0.25089  0.35899  0.16937  Biso   1.000  C
  C5       1.0000 0.35013  0.46877  0.85053  Biso   1.000  C
  C6       1.0000 0.00553  0.54566  0.64126  Biso   1.000  C
  C7       1.0000 0.17087  0.63116  0.32655  Biso   1.000  C
