# generated using pymatgen
data_C
_symmetry_space_group_name_H-M   'P 1'
_cell_length_a   2.55189958
_cell_length_b   2.51057274
_cell_length_c   6.17783813
_cell_angle_alpha   102.09280414
_cell_angle_beta   89.99999984
_cell_angle_gamma   90.00000000
_symmetry_Int_Tables_number   1
_chemical_formula_structural   C
_chemical_formula_sum   C6
_cell_volume   38.70144583
_cell_formula_units_Z   6
loop_
 _symmetry_equiv_pos_site_id
 _symmetry_equiv_pos_as_xyz
  1  'x, y, z'
loop_
 _atom_site_type_symbol
 _atom_site_label
 _atom_site_symmetry_multiplicity
 _atom_site_fract_x
 _atom_site_fract_y
 _atom_site_fract_z
 _atom_site_occupancy
  C  C1  1  0.306601  0.970051  0.551768  1
  C  C2  1  0.806599  0.117530  0.652091  1
  C  C3  1  0.806599  0.327008  0.896225  1
  C  C4  1  0.806599  0.907245  0.028035  1
  C  C5  1  0.306600  0.980722  0.171757  1
  C  C6  1  0.306600  0.609424  0.340653  1
