data_image0
_cell_length_a       3.51128
_cell_length_b       3.51353
_cell_length_c       5.86404
_cell_angle_alpha    88.4129
_cell_angle_beta     74.2818
_cell_angle_gamma    83.2647

_symmetry_space_group_name_H-M    "P 1"
_symmetry_int_tables_number       1

loop_
  _symmetry_equiv_pos_as_xyz
  'x, y, z'

loop_
  _atom_site_label
  _atom_site_occupancy
  _atom_site_fract_x
  _atom_site_fract_y
  _atom_site_fract_z
  _atom_site_thermal_displace_type
  _atom_site_B_iso_or_equiv
  _atom_site_type_symbol
  C1       1.0000 0.10172  0.21342  0.67761  Biso   1.000  C
  C2       1.0000 0.31359  0.94477  0.78525  Biso   1.000  C
  C3       1.0000 0.63180  0.69794  0.65766  Biso   1.000  C
  C4       1.0000 0.78621  0.45774  0.81026  Biso   1.000  C
  C5       1.0000 0.85337  0.61449  0.41767  Biso   1.000  C
  C6       1.0000 0.14886  0.30756  0.42591  Biso   1.000  C
  C7       1.0000 0.58007  0.52471  0.06112  Biso   1.000  C
  C8       1.0000 0.79892  0.80011  0.19392  Biso   1.000  C
  C9       1.0000 0.44289  0.15138  0.19891  Biso   1.000  C
  C10      1.0000 0.23892  0.87078  0.05133  Biso   1.000  C
