data_image0
_cell_length_a       3.61357
_cell_length_b       4.59625
_cell_length_c       5.2343
_cell_angle_alpha    93.5453
_cell_angle_beta     107.948
_cell_angle_gamma    111.654

_symmetry_space_group_name_H-M    "P 1"
_symmetry_int_tables_number       1

loop_
  _symmetry_equiv_pos_as_xyz
  'x, y, z'

loop_
  _atom_site_label
  _atom_site_occupancy
  _atom_site_fract_x
  _atom_site_fract_y
  _atom_site_fract_z
  _atom_site_thermal_displace_type
  _atom_site_B_iso_or_equiv
  _atom_site_type_symbol
  C1       1.0000 0.85896  0.32023  0.41297  Biso   1.000  C
  C2       1.0000 0.83375  0.15264  0.14713  Biso   1.000  C
  C3       1.0000 0.27911  0.59971  0.90783  Biso   1.000  C
  C4       1.0000 0.24047  0.35371  0.08807  Biso   1.000  C
  C5       1.0000 0.02708  0.80104  0.89264  Biso   1.000  C
  C6       1.0000 0.43632  0.21022  0.69707  Biso   1.000  C
  C7       1.0000 0.59971  0.07541  0.55014  Biso   1.000  C
  C8       1.0000 0.38224  0.12889  0.95444  Biso   1.000  C
  C9       1.0000 0.29962  0.48129  0.63684  Biso   1.000  C
  C10      1.0000 0.65819  0.75382  0.58703  Biso   1.000  C
  C11      1.0000 0.76512  0.79500  0.09276  Biso   1.000  C
  C12      1.0000 0.67405  0.57528  0.32635  Biso   1.000  C
