# generated using pymatgen
data_C
_symmetry_space_group_name_H-M   'P 1'
_cell_length_a   2.53823548
_cell_length_b   4.58195263
_cell_length_c   5.60442722
_cell_angle_alpha   81.05336452
_cell_angle_beta   89.99625267
_cell_angle_gamma   90.00074430
_symmetry_Int_Tables_number   1
_chemical_formula_structural   C
_chemical_formula_sum   C9
_cell_volume   64.38690320
_cell_formula_units_Z   9
loop_
 _symmetry_equiv_pos_site_id
 _symmetry_equiv_pos_as_xyz
  1  'x, y, z'
loop_
 _atom_site_type_symbol
 _atom_site_label
 _atom_site_symmetry_multiplicity
 _atom_site_fract_x
 _atom_site_fract_y
 _atom_site_fract_z
 _atom_site_occupancy
  C  C1  1  0.852546  0.240286  0.958936  1
  C  C2  1  0.852560  0.454004  0.760910  1
  C  C3  1  0.852570  0.739309  0.817504  1
  C  C4  1  0.352562  0.845867  0.878766  1
  C  C5  1  0.352533  0.079635  0.038019  1
  C  C6  1  0.852465  0.441841  0.459283  1
  C  C7  1  0.352471  0.277860  0.408490  1
  C  C8  1  0.852463  0.784352  0.368456  1
  C  C9  1  0.352476  0.967698  0.312553  1
