# generated using pymatgen
data_C
_symmetry_space_group_name_H-M   'P 1'
_cell_length_a   3.48836943
_cell_length_b   3.91930944
_cell_length_c   4.99263689
_cell_angle_alpha   74.66637295
_cell_angle_beta   82.61113848
_cell_angle_gamma   85.08000244
_symmetry_Int_Tables_number   1
_chemical_formula_structural   C
_chemical_formula_sum   C8
_cell_volume   65.18715770
_cell_formula_units_Z   8
loop_
 _symmetry_equiv_pos_site_id
 _symmetry_equiv_pos_as_xyz
  1  'x, y, z'
loop_
 _atom_site_type_symbol
 _atom_site_label
 _atom_site_symmetry_multiplicity
 _atom_site_fract_x
 _atom_site_fract_y
 _atom_site_fract_z
 _atom_site_occupancy
  C  C1  1  0.404356  0.388094  0.247488  1
  C  C2  1  0.081922  0.411174  0.096058  1
  C  C3  1  0.073825  0.190917  0.906480  1
  C  C4  1  0.483983  0.091675  0.478322  1
  C  C5  1  0.430605  0.101000  0.761325  1
  C  C6  1  0.747250  0.982636  0.921595  1
  C  C7  1  0.695379  0.797628  0.408476  1
  C  C8  1  0.729838  0.644378  0.157842  1
