# generated using pymatgen
data_C
_symmetry_space_group_name_H-M   'P 1'
_cell_length_a   3.49761604
_cell_length_b   4.58877854
_cell_length_c   6.30361597
_cell_angle_alpha   90.14222358
_cell_angle_beta   102.49033167
_cell_angle_gamma   95.14472396
_symmetry_Int_Tables_number   1
_chemical_formula_structural   C
_chemical_formula_sum   C12
_cell_volume   98.35436926
_cell_formula_units_Z   12
loop_
 _symmetry_equiv_pos_site_id
 _symmetry_equiv_pos_as_xyz
  1  'x, y, z'
loop_
 _atom_site_type_symbol
 _atom_site_label
 _atom_site_symmetry_multiplicity
 _atom_site_fract_x
 _atom_site_fract_y
 _atom_site_fract_z
 _atom_site_occupancy
  C  C1  1  0.773235  0.594193  0.729010  1
  C  C2  1  0.397094  0.693393  0.614403  1
  C  C3  1  0.403095  0.879693  0.970580  1
  C  C4  1  0.632917  0.169265  0.961035  1
  C  C5  1  0.231249  0.484312  0.443097  1
  C  C6  1  0.122948  0.520092  0.218729  1
  C  C7  1  0.728050  0.426574  0.107518  1
  C  C8  1  0.428528  0.625539  0.109532  1
  C  C9  1  0.295488  0.220974  0.560924  1
  C  C10  1  -0.001361  0.087734  0.656741  1
  C  C11  1  0.699455  0.253526  0.729307  1
  C  C12  1  0.122823  0.803473  0.747435  1
