# generated using pymatgen
data_C
_symmetry_space_group_name_H-M   'P 1'
_cell_length_a   3.53827874
_cell_length_b   3.90304393
_cell_length_c   4.75811013
_cell_angle_alpha   104.70775926
_cell_angle_beta   92.19595385
_cell_angle_gamma   103.59528215
_symmetry_Int_Tables_number   1
_chemical_formula_structural   C
_chemical_formula_sum   C8
_cell_volume   61.43932344
_cell_formula_units_Z   8
loop_
 _symmetry_equiv_pos_site_id
 _symmetry_equiv_pos_as_xyz
  1  'x, y, z'
loop_
 _atom_site_type_symbol
 _atom_site_label
 _atom_site_symmetry_multiplicity
 _atom_site_fract_x
 _atom_site_fract_y
 _atom_site_fract_z
 _atom_site_occupancy
  C  C1  1  0.204435  0.115017  0.109458  1
  C  C2  1  0.367035  0.309371  0.378248  1
  C  C3  1  0.650675  0.652166  0.075178  1
  C  C4  1  0.664445  0.631200  0.379845  1
  C  C5  1  0.266892  0.492336  0.896690  1
  C  C6  1  0.198104  0.214875  0.617782  1
  C  C7  1  0.012562  0.749370  0.927963  1
  C  C8  1  0.947972  0.859037  0.608870  1
