data_image0
_cell_length_a       2.66425
_cell_length_b       4.52669
_cell_length_c       4.95126
_cell_angle_alpha    66.8617
_cell_angle_beta     88.8654
_cell_angle_gamma    81.2568

_symmetry_space_group_name_H-M    "P 1"
_symmetry_int_tables_number       1

loop_
  _symmetry_equiv_pos_as_xyz
  'x, y, z'

loop_
  _atom_site_label
  _atom_site_occupancy
  _atom_site_fract_x
  _atom_site_fract_y
  _atom_site_fract_z
  _atom_site_thermal_displace_type
  _atom_site_B_iso_or_equiv
  _atom_site_type_symbol
  C1       1.0000 0.80116  0.66367  0.14116  Biso   1.000  C
  C2       1.0000 0.60124  0.79250  0.35469  Biso   1.000  C
  C3       1.0000 0.64771  0.55206  0.64854  Biso   1.000  C
  C4       1.0000 0.88740  0.25353  0.65657  Biso   1.000  C
  C5       1.0000 0.54390  0.72678  0.84922  Biso   1.000  C
  C6       1.0000 0.00652  0.90399  0.84877  Biso   1.000  C
  C7       1.0000 0.49992  0.13666  0.28543  Biso   1.000  C
  C8       1.0000 0.97004  0.29262  0.32166  Biso   1.000  C
