# generated using pymatgen
data_C
_symmetry_space_group_name_H-M   'P 1'
_cell_length_a   3.08916507
_cell_length_b   4.85176776
_cell_length_c   4.81839568
_cell_angle_alpha   69.10800718
_cell_angle_beta   84.90217872
_cell_angle_gamma   67.18998700
_symmetry_Int_Tables_number   1
_chemical_formula_structural   C
_chemical_formula_sum   C8
_cell_volume   62.09087556
_cell_formula_units_Z   8
loop_
 _symmetry_equiv_pos_site_id
 _symmetry_equiv_pos_as_xyz
  1  'x, y, z'
loop_
 _atom_site_type_symbol
 _atom_site_label
 _atom_site_symmetry_multiplicity
 _atom_site_fract_x
 _atom_site_fract_y
 _atom_site_fract_z
 _atom_site_occupancy
  C  C1  1  0.788141  0.761428  0.052058  1
  C  C2  1  0.659823  0.793240  0.333156  1
  C  C3  1  0.690075  0.567020  0.638000  1
  C  C4  1  0.866555  0.240705  0.659853  1
  C  C5  1  0.523548  0.707185  0.866193  1
  C  C6  1  0.056552  0.923871  0.876050  1
  C  C7  1  0.443539  0.119991  0.309455  1
  C  C8  1  -0.070349  0.208377  0.371279  1
