# generated using pymatgen
data_C
_symmetry_space_group_name_H-M   'P 1'
_cell_length_a   2.53789430
_cell_length_b   4.43015292
_cell_length_c   5.97126769
_cell_angle_alpha   93.28493376
_cell_angle_beta   93.80439484
_cell_angle_gamma   91.40505296
_symmetry_Int_Tables_number   1
_chemical_formula_structural   C
_chemical_formula_sum   C11
_cell_volume   66.85146711
_cell_formula_units_Z   11
loop_
 _symmetry_equiv_pos_site_id
 _symmetry_equiv_pos_as_xyz
  1  'x, y, z'
loop_
 _atom_site_type_symbol
 _atom_site_label
 _atom_site_symmetry_multiplicity
 _atom_site_fract_x
 _atom_site_fract_y
 _atom_site_fract_z
 _atom_site_occupancy
  C  C1  1  0.609998  0.654968  0.830025  1
  C  C2  1  0.619315  0.691868  0.077962  1
  C  C3  1  0.187531  0.886076  0.423209  1
  C  C4  1  0.720431  0.061233  0.513549  1
  C  C5  1  0.098892  0.532729  0.730635  1
  C  C6  1  0.152354  0.551845  0.482501  1
  C  C7  1  0.638000  0.379818  0.396462  1
  C  C8  1  0.603397  0.351196  0.141012  1
  C  C9  1  0.135948  0.861108  0.157038  1
  C  C10  1  0.081993  0.178183  0.047027  1
  C  C11  1  -0.016133  0.186313  0.771610  1
