# generated using pymatgen
data_C
_symmetry_space_group_name_H-M   'P 1'
_cell_length_a   2.50376498
_cell_length_b   4.30630285
_cell_length_c   5.83395310
_cell_angle_alpha   95.40735309
_cell_angle_beta   90.00000000
_cell_angle_gamma   90.00000000
_symmetry_Int_Tables_number   1
_chemical_formula_structural   C
_chemical_formula_sum   C9
_cell_volume   62.62158967
_cell_formula_units_Z   9
loop_
 _symmetry_equiv_pos_site_id
 _symmetry_equiv_pos_as_xyz
  1  'x, y, z'
loop_
 _atom_site_type_symbol
 _atom_site_label
 _atom_site_symmetry_multiplicity
 _atom_site_fract_x
 _atom_site_fract_y
 _atom_site_fract_z
 _atom_site_occupancy
  C  C1  1  0.589768  0.730831  0.803335  1
  C  C2  1  0.089769  0.570864  0.783496  1
  C  C3  1  0.589768  0.081338  0.868923  1
  C  C4  1  0.089769  0.117801  0.503017  1
  C  C5  1  0.089769  0.219260  0.756489  1
  C  C6  1  0.089769  0.016343  0.249546  1
  C  C7  1  0.589768  0.504774  0.202700  1
  C  C8  1  0.089769  0.664738  0.222536  1
  C  C9  1  0.589768  0.154265  0.137111  1
