# generated using pymatgen
data_C
_symmetry_space_group_name_H-M   'P 1'
_cell_length_a   2.56966811
_cell_length_b   4.20803033
_cell_length_c   6.45787264
_cell_angle_alpha   92.59257272
_cell_angle_beta   96.47768038
_cell_angle_gamma   90.58225960
_symmetry_Int_Tables_number   1
_chemical_formula_structural   C
_chemical_formula_sum   C11
_cell_volume   69.30551229
_cell_formula_units_Z   11
loop_
 _symmetry_equiv_pos_site_id
 _symmetry_equiv_pos_as_xyz
  1  'x, y, z'
loop_
 _atom_site_type_symbol
 _atom_site_label
 _atom_site_symmetry_multiplicity
 _atom_site_fract_x
 _atom_site_fract_y
 _atom_site_fract_z
 _atom_site_occupancy
  C  C1  1  0.105125  0.157232  0.712853  1
  C  C2  1  0.158104  0.499105  0.789595  1
  C  C3  1  0.628429  0.008085  0.798184  1
  C  C4  1  0.645104  0.663639  0.711306  1
  C  C5  1  0.805139  0.389293  0.361379  1
  C  C6  1  0.749890  0.709834  0.473436  1
  C  C7  1  0.916327  0.086946  0.473923  1
  C  C8  1  0.736984  0.367904  0.123657  1
  C  C9  1  0.707957  0.030370  0.040170  1
  C  C10  1  0.214800  0.519528  0.037675  1
  C  C11  1  0.222150  0.867449  0.089879  1
