# generated using pymatgen
data_C
_symmetry_space_group_name_H-M   'P 1'
_cell_length_a   2.49290450
_cell_length_b   3.38494097
_cell_length_c   6.34539486
_cell_angle_alpha   94.75323900
_cell_angle_beta   90.06992206
_cell_angle_gamma   111.55387158
_symmetry_Int_Tables_number   1
_chemical_formula_structural   C
_chemical_formula_sum   C8
_cell_volume   49.60009189
_cell_formula_units_Z   8
loop_
 _symmetry_equiv_pos_site_id
 _symmetry_equiv_pos_as_xyz
  1  'x, y, z'
loop_
 _atom_site_type_symbol
 _atom_site_label
 _atom_site_symmetry_multiplicity
 _atom_site_fract_x
 _atom_site_fract_y
 _atom_site_fract_z
 _atom_site_occupancy
  C  C1  1  0.947146  0.860245  0.861398  1
  C  C2  1  0.113542  0.193390  0.028854  1
  C  C3  1  0.432695  0.832201  0.361733  1
  C  C4  1  0.883273  0.733594  0.255576  1
  C  C5  1  0.718645  0.403830  0.085614  1
  C  C6  1  0.413738  0.794097  0.731226  1
  C  C7  1  0.582018  0.130948  0.561063  1
  C  C8  1  0.211027  0.389388  0.586627  1
