# generated using pymatgen
data_C
_symmetry_space_group_name_H-M   'P 1'
_cell_length_a   3.59502243
_cell_length_b   4.39403468
_cell_length_c   4.37570001
_cell_angle_alpha   64.08563440
_cell_angle_beta   81.17667096
_cell_angle_gamma   80.19541462
_symmetry_Int_Tables_number   1
_chemical_formula_structural   C
_chemical_formula_sum   C8
_cell_volume   61.01943526
_cell_formula_units_Z   8
loop_
 _symmetry_equiv_pos_site_id
 _symmetry_equiv_pos_as_xyz
  1  'x, y, z'
loop_
 _atom_site_type_symbol
 _atom_site_label
 _atom_site_symmetry_multiplicity
 _atom_site_fract_x
 _atom_site_fract_y
 _atom_site_fract_z
 _atom_site_occupancy
  C  C1  1  0.875289  0.638900  0.138675  1
  C  C2  1  0.504248  0.605727  0.295957  1
  C  C3  1  0.876497  -0.050447  0.841099  1
  C  C4  1  0.269415  0.055777  0.563680  1
  C  C5  1  0.389192  0.715550  0.558455  1
  C  C6  1  0.387037  0.402410  0.870838  1
  C  C7  1  0.518237  0.124781  0.778776  1
  C  C8  1  0.250029  0.403714  0.220269  1
