# generated using pymatgen
data_C
_symmetry_space_group_name_H-M   'P 1'
_cell_length_a   2.52794984
_cell_length_b   3.95968815
_cell_length_c   5.02152070
_cell_angle_alpha   101.30652335
_cell_angle_beta   90.00000000
_cell_angle_gamma   90.00000000
_symmetry_Int_Tables_number   1
_chemical_formula_structural   C
_chemical_formula_sum   C8
_cell_volume   49.28936139
_cell_formula_units_Z   8
loop_
 _symmetry_equiv_pos_site_id
 _symmetry_equiv_pos_as_xyz
  1  'x, y, z'
loop_
 _atom_site_type_symbol
 _atom_site_label
 _atom_site_symmetry_multiplicity
 _atom_site_fract_x
 _atom_site_fract_y
 _atom_site_fract_z
 _atom_site_occupancy
  C  C1  1  0.417421  0.981518  0.162097  1
  C  C2  1  0.417421  0.325526  0.278345  1
  C  C3  1  0.917419  0.535935  0.304096  1
  C  C4  1  0.917419  0.778914  0.091038  1
  C  C5  1  0.417421  0.367763  0.742045  1
  C  C6  1  0.417421  0.025999  0.586357  1
  C  C7  1  0.917419  0.812895  0.577832  1
  C  C8  1  0.917419  0.579671  0.800467  1
