data_image0
_cell_length_a       2.50939
_cell_length_b       4.13375
_cell_length_c       5.37224
_cell_angle_alpha    109.009
_cell_angle_beta     90
_cell_angle_gamma    90

_symmetry_space_group_name_H-M    "P 1"
_symmetry_int_tables_number       1

loop_
  _symmetry_equiv_pos_as_xyz
  'x, y, z'

loop_
  _atom_site_label
  _atom_site_occupancy
  _atom_site_fract_x
  _atom_site_fract_y
  _atom_site_fract_z
  _atom_site_thermal_displace_type
  _atom_site_B_iso_or_equiv
  _atom_site_type_symbol
  C1       1.0000 0.41742  0.00411  0.14987  Biso   1.000  C
  C2       1.0000 0.41742  0.34795  0.23570  Biso   1.000  C
  C3       1.0000 0.91742  0.55472  0.28746  Biso   1.000  C
  C4       1.0000 0.91742  0.79734  0.09811  Biso   1.000  C
  C5       1.0000 0.41742  0.34795  0.73570  Biso   1.000  C
  C6       1.0000 0.41742  0.00411  0.64987  Biso   1.000  C
  C7       1.0000 0.91742  0.79734  0.59811  Biso   1.000  C
  C8       1.0000 0.91742  0.55472  0.78746  Biso   1.000  C
