# generated using pymatgen
data_C
_symmetry_space_group_name_H-M   'P 1'
_cell_length_a   2.57134498
_cell_length_b   2.57134498
_cell_length_c   8.65578485
_cell_angle_alpha   90.00000001
_cell_angle_beta   90.00000001
_cell_angle_gamma   90.00000000
_symmetry_Int_Tables_number   1
_chemical_formula_structural   C
_chemical_formula_sum   C8
_cell_volume   57.23044824
_cell_formula_units_Z   8
loop_
 _symmetry_equiv_pos_site_id
 _symmetry_equiv_pos_as_xyz
  1  'x, y, z'
loop_
 _atom_site_type_symbol
 _atom_site_label
 _atom_site_symmetry_multiplicity
 _atom_site_fract_x
 _atom_site_fract_y
 _atom_site_fract_z
 _atom_site_occupancy
  C  C1  1  0.586312  0.424015  0.775496  1
  C  C2  1  0.586312  0.424015  0.611374  1
  C  C3  1  0.086310  0.924014  0.421115  1
  C  C4  1  0.086310  0.924014  0.256991  1
  C  C5  1  0.086310  0.424015  0.016244  1
  C  C6  1  0.086310  0.424015  0.854213  1
  C  C7  1  0.086310  0.424015  0.178275  1
  C  C8  1  0.586312  0.924014  0.516244  1
