# generated using pymatgen
data_C
_symmetry_space_group_name_H-M   'P 1'
_cell_length_a   2.63128006
_cell_length_b   3.53880142
_cell_length_c   4.79192007
_cell_angle_alpha   90.73281043
_cell_angle_beta   89.91990778
_cell_angle_gamma   112.14578546
_symmetry_Int_Tables_number   1
_chemical_formula_structural   C
_chemical_formula_sum   C6
_cell_volume   41.32492792
_cell_formula_units_Z   6
loop_
 _symmetry_equiv_pos_site_id
 _symmetry_equiv_pos_as_xyz
  1  'x, y, z'
loop_
 _atom_site_type_symbol
 _atom_site_label
 _atom_site_symmetry_multiplicity
 _atom_site_fract_x
 _atom_site_fract_y
 _atom_site_fract_z
 _atom_site_occupancy
  C  C1  1  0.826649  0.967997  0.149080  1
  C  C2  1  0.684117  0.587654  -0.028631  1
  C  C3  1  0.008660  0.338922  0.046467  1
  C  C4  1  0.637752  0.589896  0.655315  1
  C  C5  1  0.415524  0.187285  0.541562  1
  C  C6  1  0.800067  0.962045  0.477266  1
