# generated using pymatgen
data_C
_symmetry_space_group_name_H-M   'P 1'
_cell_length_a   2.55193941
_cell_length_b   3.65719637
_cell_length_c   8.17158827
_cell_angle_alpha   80.23813688
_cell_angle_beta   94.49900942
_cell_angle_gamma   69.68099188
_symmetry_Int_Tables_number   1
_chemical_formula_structural   C
_chemical_formula_sum   C8
_cell_volume   69.70139931
_cell_formula_units_Z   8
loop_
 _symmetry_equiv_pos_site_id
 _symmetry_equiv_pos_as_xyz
  1  'x, y, z'
loop_
 _atom_site_type_symbol
 _atom_site_label
 _atom_site_symmetry_multiplicity
 _atom_site_fract_x
 _atom_site_fract_y
 _atom_site_fract_z
 _atom_site_occupancy
  C  C1  1  0.769263  0.786057  0.237374  1
  C  C2  1  0.124424  0.427230  0.237374  1
  C  C3  1  0.492346  0.061144  0.328375  1
  C  C4  1  0.581551  0.971940  0.506786  1
  C  C5  1  0.124313  0.929178  0.592310  1
  C  C6  1  0.215050  0.838441  0.773785  1
  C  C7  1  0.447465  0.410063  0.845953  1
  C  C8  1  0.054801  0.194648  0.845953  1
