data_image0
_cell_length_a       3.64877
_cell_length_b       3.36199
_cell_length_c       5.55195
_cell_angle_alpha    104.845
_cell_angle_beta     106.61
_cell_angle_gamma    98.14

_symmetry_space_group_name_H-M    "P 1"
_symmetry_int_tables_number       1

loop_
  _symmetry_equiv_pos_as_xyz
  'x, y, z'

loop_
  _atom_site_label
  _atom_site_occupancy
  _atom_site_fract_x
  _atom_site_fract_y
  _atom_site_fract_z
  _atom_site_thermal_displace_type
  _atom_site_B_iso_or_equiv
  _atom_site_type_symbol
  C1       1.0000 0.56981  0.98608  0.81651  Biso   1.000  C
  C2       1.0000 0.18120  0.78217  0.81652  Biso   1.000  C
  C3       1.0000 0.77054  0.37144  0.99509  Biso   1.000  C
  C4       1.0000 0.15915  0.57535  0.99508  Biso   1.000  C
  C5       1.0000 0.62426  0.36565  0.40579  Biso   1.000  C
  C6       1.0000 0.71610  0.99186  0.40581  Biso   1.000  C
  C7       1.0000 0.55799  0.56652  0.18131  Biso   1.000  C
  C8       1.0000 0.78236  0.79100  0.63029  Biso   1.000  C
