# generated using pymatgen
data_C
_symmetry_space_group_name_H-M   'P 1'
_cell_length_a   2.48914142
_cell_length_b   3.60475226
_cell_length_c   4.43434476
_cell_angle_alpha   78.73179803
_cell_angle_beta   84.32000305
_cell_angle_gamma   75.74291453
_symmetry_Int_Tables_number   1
_chemical_formula_structural   C
_chemical_formula_sum   C5
_cell_volume   37.76523382
_cell_formula_units_Z   5
loop_
 _symmetry_equiv_pos_site_id
 _symmetry_equiv_pos_as_xyz
  1  'x, y, z'
loop_
 _atom_site_type_symbol
 _atom_site_label
 _atom_site_symmetry_multiplicity
 _atom_site_fract_x
 _atom_site_fract_y
 _atom_site_fract_z
 _atom_site_occupancy
  C  C1  1  0.837446  0.598600  0.630080  1
  C  C2  1  0.340547  0.669752  0.471488  1
  C  C3  1  0.790224  0.509808  0.974751  1
  C  C4  1  0.345408  0.252938  0.089461  1
  C  C5  1  0.410518  0.866080  0.161357  1
