data_image0
_cell_length_a       3.12619
_cell_length_b       3.12282
_cell_length_c       4.71662
_cell_angle_alpha    77.7817
_cell_angle_beta     77.8643
_cell_angle_gamma    81.981

_symmetry_space_group_name_H-M    "P 1"
_symmetry_int_tables_number       1

loop_
  _symmetry_equiv_pos_as_xyz
  'x, y, z'

loop_
  _atom_site_label
  _atom_site_occupancy
  _atom_site_fract_x
  _atom_site_fract_y
  _atom_site_fract_z
  _atom_site_thermal_displace_type
  _atom_site_B_iso_or_equiv
  _atom_site_type_symbol
  C1       1.0000 0.63435  0.72145  0.05823  Biso   1.000  C
  C2       1.0000 0.30664  0.04896  0.05831  Biso   1.000  C
  C3       1.0000 0.74576  0.48801  0.31773  Biso   1.000  C
  C4       1.0000 0.07347  0.16050  0.31765  Biso   1.000  C
  C5       1.0000 0.84920  0.62599  0.77617  Biso   1.000  C
  C6       1.0000 0.53091  0.58346  0.59978  Biso   1.000  C
  C7       1.0000 0.16882  0.94556  0.59981  Biso   1.000  C
  C8       1.0000 0.21129  0.26389  0.77615  Biso   1.000  C
