# generated using pymatgen
data_C
_symmetry_space_group_name_H-M   'P 1'
_cell_length_a   3.70071091
_cell_length_b   3.49821141
_cell_length_c   3.47633982
_cell_angle_alpha   67.48455114
_cell_angle_beta   87.99424708
_cell_angle_gamma   88.46619941
_symmetry_Int_Tables_number   1
_chemical_formula_structural   C
_chemical_formula_sum   C6
_cell_volume   41.54402646
_cell_formula_units_Z   6
loop_
 _symmetry_equiv_pos_site_id
 _symmetry_equiv_pos_as_xyz
  1  'x, y, z'
loop_
 _atom_site_type_symbol
 _atom_site_label
 _atom_site_symmetry_multiplicity
 _atom_site_fract_x
 _atom_site_fract_y
 _atom_site_fract_z
 _atom_site_occupancy
  C  C1  1  0.524754  0.498534  0.260601  1
  C  C2  1  0.514509  0.702987  0.517842  1
  C  C3  1  0.003658  0.247419  1.009608  1
  C  C4  1  0.014752  -0.010040  0.804954  1
  C  C5  1  0.764654  0.040779  0.467157  1
  C  C6  1  0.264588  0.592588  0.915411  1
