# generated using pymatgen
data_C
_symmetry_space_group_name_H-M   'P 1'
_cell_length_a   2.55153454
_cell_length_b   5.59729176
_cell_length_c   6.72420713
_cell_angle_alpha   110.39153738
_cell_angle_beta   102.18506531
_cell_angle_gamma   88.87373864
_symmetry_Int_Tables_number   1
_chemical_formula_structural   C
_chemical_formula_sum   C11
_cell_volume   87.83466993
_cell_formula_units_Z   11
loop_
 _symmetry_equiv_pos_site_id
 _symmetry_equiv_pos_as_xyz
  1  'x, y, z'
loop_
 _atom_site_type_symbol
 _atom_site_label
 _atom_site_symmetry_multiplicity
 _atom_site_fract_x
 _atom_site_fract_y
 _atom_site_fract_z
 _atom_site_occupancy
  C  C1  1  0.577787  0.482596  0.616348  1
  C  C2  1  0.590916  0.235357  0.638499  1
  C  C3  1  0.457289  0.961605  0.010276  1
  C  C4  1  0.700285  0.933827  0.195895  1
  C  C5  1  0.264875  0.141193  0.916763  1
  C  C6  1  0.885925  0.762468  0.299416  1
  C  C7  1  0.029282  0.820180  0.529500  1
  C  C8  1  0.306479  0.393557  0.071534  1
  C  C9  1  0.846751  0.506889  0.152705  1
  C  C10  1  0.065602  0.602377  0.600377  1
  C  C11  1  0.112700  0.103103  0.675983  1
