# generated using pymatgen
data_C
_symmetry_space_group_name_H-M   'P 1'
_cell_length_a   4.56711367
_cell_length_b   4.78587299
_cell_length_c   5.50646954
_cell_angle_alpha   93.21777378
_cell_angle_beta   108.52688712
_cell_angle_gamma   116.76407684
_symmetry_Int_Tables_number   1
_chemical_formula_structural   C
_chemical_formula_sum   C12
_cell_volume   99.03341333
_cell_formula_units_Z   12
loop_
 _symmetry_equiv_pos_site_id
 _symmetry_equiv_pos_as_xyz
  1  'x, y, z'
loop_
 _atom_site_type_symbol
 _atom_site_label
 _atom_site_symmetry_multiplicity
 _atom_site_fract_x
 _atom_site_fract_y
 _atom_site_fract_z
 _atom_site_occupancy
  C  C1  1  0.860675  0.371862  0.570303  1
  C  C2  1  0.841444  0.238255  0.784047  1
  C  C3  1  0.814080  0.007836  0.930324  1
  C  C4  1  0.887657  0.218455  0.362628  1
  C  C5  1  -0.004886  0.839148  0.887262  1
  C  C6  1  0.649396  0.015247  0.108450  1
  C  C7  1  0.293198  0.840999  0.089042  1
  C  C8  1  0.291514  0.754144  0.337317  1
  C  C9  1  0.160140  0.907857  0.477155  1
  C  C10  1  0.224271  0.231641  0.444294  1
  C  C11  1  0.471111  0.571690  0.448371  1
  C  C12  1  0.879409  0.692754  0.590944  1
