data_image0
_cell_length_a       3.8423
_cell_length_b       3.6811
_cell_length_c       4.85006
_cell_angle_alpha    70.2134
_cell_angle_beta     75.6857
_cell_angle_gamma    55.3518

_symmetry_space_group_name_H-M    "P 1"
_symmetry_int_tables_number       1

loop_
  _symmetry_equiv_pos_as_xyz
  'x, y, z'

loop_
  _atom_site_label
  _atom_site_occupancy
  _atom_site_fract_x
  _atom_site_fract_y
  _atom_site_fract_z
  _atom_site_thermal_displace_type
  _atom_site_B_iso_or_equiv
  _atom_site_type_symbol
  C1       1.0000 0.83278  0.40777  0.02656  Biso   1.000  C
  C2       1.0000 0.20685  0.40098  0.03795  Biso   1.000  C
  C3       1.0000 0.47571  0.55897  0.85262  Biso   1.000  C
  C4       1.0000 0.33858  0.80901  0.56208  Biso   1.000  C
  C5       1.0000 0.79731  0.08890  0.27737  Biso   1.000  C
  C6       1.0000 0.34809  0.22118  0.35855  Biso   1.000  C
  C7       1.0000 0.13855  0.68797  0.44094  Biso   1.000  C
