# generated using pymatgen
data_C
_symmetry_space_group_name_H-M   'P 1'
_cell_length_a   3.69255737
_cell_length_b   4.43831212
_cell_length_c   4.70669036
_cell_angle_alpha   58.34172417
_cell_angle_beta   75.35537791
_cell_angle_gamma   83.22050828
_symmetry_Int_Tables_number   1
_chemical_formula_structural   C
_chemical_formula_sum   C8
_cell_volume   63.51509690
_cell_formula_units_Z   8
loop_
 _symmetry_equiv_pos_site_id
 _symmetry_equiv_pos_as_xyz
  1  'x, y, z'
loop_
 _atom_site_type_symbol
 _atom_site_label
 _atom_site_symmetry_multiplicity
 _atom_site_fract_x
 _atom_site_fract_y
 _atom_site_fract_z
 _atom_site_occupancy
  C  C1  1  0.861006  0.624960  0.937769  1
  C  C2  1  0.250115  0.574340  0.815891  1
  C  C3  1  0.793250  0.966090  0.901265  1
  C  C4  1  -0.026997  0.240195  0.589714  1
  C  C5  1  0.568349  0.013992  0.170551  1
  C  C6  1  0.293203  0.443160  0.377360  1
  C  C7  1  0.383256  0.692248  0.458127  1
  C  C8  1  0.503531  0.400438  0.076364  1
