# generated using pymatgen
data_C
_symmetry_space_group_name_H-M   'P 1'
_cell_length_a   2.64359723
_cell_length_b   3.72016872
_cell_length_c   6.96685480
_cell_angle_alpha   100.57954373
_cell_angle_beta   79.06316276
_cell_angle_gamma   90.00000001
_symmetry_Int_Tables_number   1
_chemical_formula_structural   C
_chemical_formula_sum   C8
_cell_volume   66.08531251
_cell_formula_units_Z   8
loop_
 _symmetry_equiv_pos_site_id
 _symmetry_equiv_pos_as_xyz
  1  'x, y, z'
loop_
 _atom_site_type_symbol
 _atom_site_label
 _atom_site_symmetry_multiplicity
 _atom_site_fract_x
 _atom_site_fract_y
 _atom_site_fract_z
 _atom_site_occupancy
  C  C1  1  0.542535  0.116059  0.345601  1
  C  C2  1  0.579971  0.739277  0.270730  1
  C  C3  1  0.684870  0.607636  0.060931  1
  C  C4  1  0.753819  0.851652  0.923035  1
  C  C5  1  0.858257  0.706756  0.714159  1
  C  C6  1  0.722306  0.230856  -0.013940  1
  C  C7  1  0.406586  0.640158  0.617500  1
  C  C8  1  0.511024  0.495262  0.408624  1
