# generated using pymatgen
data_C
_symmetry_space_group_name_H-M   'P 1'
_cell_length_a   2.70981847
_cell_length_b   3.63189805
_cell_length_c   4.93679377
_cell_angle_alpha   68.41754888
_cell_angle_beta   82.04902697
_cell_angle_gamma   67.91085076
_symmetry_Int_Tables_number   1
_chemical_formula_structural   C
_chemical_formula_sum   C6
_cell_volume   41.86414879
_cell_formula_units_Z   6
loop_
 _symmetry_equiv_pos_site_id
 _symmetry_equiv_pos_as_xyz
  1  'x, y, z'
loop_
 _atom_site_type_symbol
 _atom_site_label
 _atom_site_symmetry_multiplicity
 _atom_site_fract_x
 _atom_site_fract_y
 _atom_site_fract_z
 _atom_site_occupancy
  C  C1  1  0.788362  0.567773  0.839620  1
  C  C2  1  0.788362  0.720336  0.534495  1
  C  C3  1  0.724118  0.513381  0.353471  1
  C  C4  1  0.852610  0.108313  0.353471  1
  C  C5  1  0.599801  0.852251  0.023721  1
  C  C6  1  0.976928  0.099193  0.023721  1
