# generated using pymatgen
data_C
_symmetry_space_group_name_H-M   'P 1'
_cell_length_a   2.61211308
_cell_length_b   4.73400868
_cell_length_c   5.06094302
_cell_angle_alpha   107.24605292
_cell_angle_beta   93.27588331
_cell_angle_gamma   106.78701331
_symmetry_Int_Tables_number   1
_chemical_formula_structural   C
_chemical_formula_sum   C8
_cell_volume   56.51982867
_cell_formula_units_Z   8
loop_
 _symmetry_equiv_pos_site_id
 _symmetry_equiv_pos_as_xyz
  1  'x, y, z'
loop_
 _atom_site_type_symbol
 _atom_site_label
 _atom_site_symmetry_multiplicity
 _atom_site_fract_x
 _atom_site_fract_y
 _atom_site_fract_z
 _atom_site_occupancy
  C  C1  1  0.040931  0.036146  0.615716  1
  C  C2  1  0.081223  0.181167  0.403182  1
  C  C3  1  0.111033  0.195194  0.901863  1
  C  C4  1  0.211418  0.489009  0.088553  1
  C  C5  1  0.339403  0.781498  0.050148  1
  C  C6  1  0.937302  0.958821  0.100173  1
  C  C7  1  0.858262  0.695044  0.520247  1
  C  C8  1  0.251134  0.516537  0.409847  1
