data_image0
_cell_length_a       3.81007
_cell_length_b       3.81007
_cell_length_c       4.37312
_cell_angle_alpha    106.69
_cell_angle_beta     106.69
_cell_angle_gamma    109.921

_symmetry_space_group_name_H-M    "P 1"
_symmetry_int_tables_number       1

loop_
  _symmetry_equiv_pos_as_xyz
  'x, y, z'

loop_
  _atom_site_label
  _atom_site_occupancy
  _atom_site_fract_x
  _atom_site_fract_y
  _atom_site_fract_z
  _atom_site_thermal_displace_type
  _atom_site_B_iso_or_equiv
  _atom_site_type_symbol
  C1       1.0000 0.69483  0.50749  0.51581  Biso   1.000  C
  C2       1.0000 0.93392  0.90932  0.51581  Biso   1.000  C
  C3       1.0000 0.28495  0.26035  0.85878  Biso   1.000  C
  C4       1.0000 0.68678  0.49944  0.85878  Biso   1.000  C
  C5       1.0000 0.30638  0.20041  0.18730  Biso   1.000  C
  C6       1.0000 0.99387  0.88789  0.18730  Biso   1.000  C
  C7       1.0000 0.90012  0.29415  0.68730  Biso   1.000  C
