# generated using pymatgen
data_C
_symmetry_space_group_name_H-M   'P 1'
_cell_length_a   3.47283124
_cell_length_b   3.47283124
_cell_length_c   4.91270412
_cell_angle_alpha   106.21753549
_cell_angle_beta   106.21753548
_cell_angle_gamma   102.11303100
_symmetry_Int_Tables_number   1
_chemical_formula_structural   C
_chemical_formula_sum   C7
_cell_volume   51.89806103
_cell_formula_units_Z   7
loop_
 _symmetry_equiv_pos_site_id
 _symmetry_equiv_pos_as_xyz
  1  'x, y, z'
loop_
 _atom_site_type_symbol
 _atom_site_label
 _atom_site_symmetry_multiplicity
 _atom_site_fract_x
 _atom_site_fract_y
 _atom_site_fract_z
 _atom_site_occupancy
  C  C1  1  0.690980  0.473386  0.450657  1
  C  C2  1  0.872624  0.878273  0.450657  1
  C  C3  1  0.315997  0.321648  0.923935  1
  C  C4  1  0.720885  0.503290  0.923935  1
  C  C5  1  0.314274  0.208302  0.187296  1
  C  C6  1  -0.014031  0.879998  0.187296  1
  C  C7  1  0.900122  0.294150  0.687297  1
