data_image0
_cell_length_a       3.65245
_cell_length_b       4.81142
_cell_length_c       4.74666
_cell_angle_alpha    86.7904
_cell_angle_beta     112.485
_cell_angle_gamma    113.408

_symmetry_space_group_name_H-M    "P 1"
_symmetry_int_tables_number       1

loop_
  _symmetry_equiv_pos_as_xyz
  'x, y, z'

loop_
  _atom_site_label
  _atom_site_occupancy
  _atom_site_fract_x
  _atom_site_fract_y
  _atom_site_fract_z
  _atom_site_thermal_displace_type
  _atom_site_B_iso_or_equiv
  _atom_site_type_symbol
  C1       1.0000 0.90297  0.59521  0.22986  Biso   1.000  C
  C2       1.0000 0.13531  0.82802  0.09687  Biso   1.000  C
  C3       1.0000 0.42587  0.11861  0.25631  Biso   1.000  C
  C4       1.0000 0.58554  0.27801  0.54704  Biso   1.000  C
  C5       1.0000 0.61241  0.30462  0.07042  Biso   1.000  C
  C6       1.0000 0.89857  0.59095  0.54274  Biso   1.000  C
  C7       1.0000 0.45274  0.14522  0.77969  Biso   1.000  C
  C8       1.0000 0.13971  0.83228  0.78399  Biso   1.000  C
