# generated using pymatgen
data_C
_symmetry_space_group_name_H-M   'P 1'
_cell_length_a   2.83231316
_cell_length_b   4.47891845
_cell_length_c   4.78777515
_cell_angle_alpha   99.94172626
_cell_angle_beta   96.77708228
_cell_angle_gamma   102.28633565
_symmetry_Int_Tables_number   1
_chemical_formula_structural   C
_chemical_formula_sum   C8
_cell_volume   57.69351894
_cell_formula_units_Z   8
loop_
 _symmetry_equiv_pos_site_id
 _symmetry_equiv_pos_as_xyz
  1  'x, y, z'
loop_
 _atom_site_type_symbol
 _atom_site_label
 _atom_site_symmetry_multiplicity
 _atom_site_fract_x
 _atom_site_fract_y
 _atom_site_fract_z
 _atom_site_occupancy
  C  C1  1  0.892444  0.599424  0.232587  1
  C  C2  1  0.088074  0.841033  0.102748  1
  C  C3  1  0.437583  0.109461  0.260905  1
  C  C4  1  0.611762  0.275667  0.548333  1
  C  C5  1  0.668408  0.294502  0.071186  1
  C  C6  1  0.858320  0.597001  0.539123  1
  C  C7  1  0.596229  0.097037  0.776125  1
  C  C8  1  0.000284  0.878795  0.775914  1
