data_image0
_cell_length_a       2.59307
_cell_length_b       4.24767
_cell_length_c       4.16846
_cell_angle_alpha    119.383
_cell_angle_beta     89.9997
_cell_angle_gamma    107.773

_symmetry_space_group_name_H-M    "P 1"
_symmetry_int_tables_number       1

loop_
  _symmetry_equiv_pos_as_xyz
  'x, y, z'

loop_
  _atom_site_label
  _atom_site_occupancy
  _atom_site_fract_x
  _atom_site_fract_y
  _atom_site_fract_z
  _atom_site_thermal_displace_type
  _atom_site_B_iso_or_equiv
  _atom_site_type_symbol
  C1       1.0000 0.29237  0.61498  0.30317  Biso   1.000  C
  C2       1.0000 0.29254  0.61497  0.62870  Biso   1.000  C
  C3       1.0000 0.48630  0.00258  0.97540  Biso   1.000  C
  C4       1.0000 0.09861  0.22738  0.95647  Biso   1.000  C
  C5       1.0000 0.48619  0.00257  0.34407  Biso   1.000  C
  C6       1.0000 0.09871  0.22739  0.58781  Biso   1.000  C
