# generated using pymatgen
data_C
_symmetry_space_group_name_H-M   'P 1'
_cell_length_a   2.63814250
_cell_length_b   3.77322862
_cell_length_c   4.79421922
_cell_angle_alpha   113.17361326
_cell_angle_beta   105.97023030
_cell_angle_gamma   90.00000000
_symmetry_Int_Tables_number   1
_chemical_formula_structural   C
_chemical_formula_sum   C6
_cell_volume   41.86174085
_cell_formula_units_Z   6
loop_
 _symmetry_equiv_pos_site_id
 _symmetry_equiv_pos_as_xyz
  1  'x, y, z'
loop_
 _atom_site_type_symbol
 _atom_site_label
 _atom_site_symmetry_multiplicity
 _atom_site_fract_x
 _atom_site_fract_y
 _atom_site_fract_z
 _atom_site_occupancy
  C  C1  1  0.310045  0.071626  0.283627  1
  C  C2  1  0.310045  0.699604  0.283627  1
  C  C3  1  0.144595  0.406176  0.952726  1
  C  C4  1  0.144595  0.034155  0.952726  1
  C  C5  1  0.426983  0.502554  0.517503  1
  C  C6  1  0.027658  0.603228  0.718852  1
