data_image0
_cell_length_a       2.62555
_cell_length_b       3.69153
_cell_length_c       4.71112
_cell_angle_alpha    113.066
_cell_angle_beta     106.18
_cell_angle_gamma    90

_symmetry_space_group_name_H-M    "P 1"
_symmetry_int_tables_number       1

loop_
  _symmetry_equiv_pos_as_xyz
  'x, y, z'

loop_
  _atom_site_label
  _atom_site_occupancy
  _atom_site_fract_x
  _atom_site_fract_y
  _atom_site_fract_z
  _atom_site_thermal_displace_type
  _atom_site_B_iso_or_equiv
  _atom_site_type_symbol
  C1       1.0000 0.30805  0.07119  0.27963  Biso   1.000  C
  C2       1.0000 0.30805  0.69603  0.27963  Biso   1.000  C
  C3       1.0000 0.14660  0.40974  0.95673  Biso   1.000  C
  C4       1.0000 0.14660  0.03459  0.95673  Biso   1.000  C
  C5       1.0000 0.42404  0.49961  0.51161  Biso   1.000  C
  C6       1.0000 0.03061  0.60618  0.72475  Biso   1.000  C
