# generated using pymatgen
data_C
_symmetry_space_group_name_H-M   'P 1'
_cell_length_a   2.62737175
_cell_length_b   3.49109163
_cell_length_c   4.80461333
_cell_angle_alpha   89.66611690
_cell_angle_beta   91.40006649
_cell_angle_gamma   110.13361302
_symmetry_Int_Tables_number   1
_chemical_formula_structural   C
_chemical_formula_sum   C6
_cell_volume   41.36430768
_cell_formula_units_Z   6
loop_
 _symmetry_equiv_pos_site_id
 _symmetry_equiv_pos_as_xyz
  1  'x, y, z'
loop_
 _atom_site_type_symbol
 _atom_site_label
 _atom_site_symmetry_multiplicity
 _atom_site_fract_x
 _atom_site_fract_y
 _atom_site_fract_z
 _atom_site_occupancy
  C  C1  1  0.239535  0.729214  0.440930  1
  C  C2  1  0.026978  0.349811  0.264603  1
  C  C3  1  0.462726  0.095908  0.336002  1
  C  C4  1  0.027631  0.360350  0.947370  1
  C  C5  1  0.822571  0.960863  0.831271  1
  C  C6  1  0.215697  0.734741  0.767530  1
