data_image0
_cell_length_a       3.66921
_cell_length_b       4.76319
_cell_length_c       4.7645
_cell_angle_alpha    75.9117
_cell_angle_beta     67.0478
_cell_angle_gamma    67.0633

_symmetry_space_group_name_H-M    "P 1"
_symmetry_int_tables_number       1

loop_
  _symmetry_equiv_pos_as_xyz
  'x, y, z'

loop_
  _atom_site_label
  _atom_site_occupancy
  _atom_site_fract_x
  _atom_site_fract_y
  _atom_site_fract_z
  _atom_site_thermal_displace_type
  _atom_site_B_iso_or_equiv
  _atom_site_type_symbol
  C1       1.0000 0.22289  0.27216  0.76250  Biso   1.000  C
  C2       1.0000 0.22290  0.03083  0.00383  Biso   1.000  C
  C3       1.0000 0.90563  0.03509  0.31674  Biso   1.000  C
  C4       1.0000 0.54016  0.26790  0.44959  Biso   1.000  C
  C5       1.0000 0.03664  0.74452  0.47619  Biso   1.000  C
  C6       1.0000 0.40915  0.55847  0.29014  Biso   1.000  C
  C7       1.0000 0.90563  0.58507  0.76676  Biso   1.000  C
  C8       1.0000 0.54016  0.71792  0.99957  Biso   1.000  C
