# generated using pymatgen
data_C
_symmetry_space_group_name_H-M   'P 1'
_cell_length_a   3.54875447
_cell_length_b   4.34760637
_cell_length_c   4.28218785
_cell_angle_alpha   86.29422161
_cell_angle_beta   73.78892854
_cell_angle_gamma   72.06150082
_symmetry_Int_Tables_number   1
_chemical_formula_structural   C
_chemical_formula_sum   C8
_cell_volume   60.34071163
_cell_formula_units_Z   8
loop_
 _symmetry_equiv_pos_site_id
 _symmetry_equiv_pos_as_xyz
  1  'x, y, z'
loop_
 _atom_site_type_symbol
 _atom_site_label
 _atom_site_symmetry_multiplicity
 _atom_site_fract_x
 _atom_site_fract_y
 _atom_site_fract_z
 _atom_site_occupancy
  C  C1  1  0.231494  0.254790  0.745462  1
  C  C2  1  0.223088  0.016958  0.984391  1
  C  C3  1  0.818920  -0.019512  0.221057  1
  C  C4  1  0.525885  0.259418  0.424314  1
  C  C5  1  0.024861  0.751185  0.504393  1
  C  C6  1  0.424529  0.583122  0.321463  1
  C  C7  1  0.920353  0.581376  0.792770  1
  C  C8  1  0.614021  0.784624  0.071454  1
