# generated using pymatgen
data_C
_symmetry_space_group_name_H-M   'P 1'
_cell_length_a   3.73210950
_cell_length_b   4.57327378
_cell_length_c   3.82756419
_cell_angle_alpha   85.88581576
_cell_angle_beta   98.92745580
_cell_angle_gamma   121.96704246
_symmetry_Int_Tables_number   1
_chemical_formula_structural   C
_chemical_formula_sum   C7
_cell_volume   54.74616112
_cell_formula_units_Z   7
loop_
 _symmetry_equiv_pos_site_id
 _symmetry_equiv_pos_as_xyz
  1  'x, y, z'
loop_
 _atom_site_type_symbol
 _atom_site_label
 _atom_site_symmetry_multiplicity
 _atom_site_fract_x
 _atom_site_fract_y
 _atom_site_fract_z
 _atom_site_occupancy
  C  C1  1  0.551196  0.234608  0.935792  1
  C  C2  1  0.496837  0.445492  0.648184  1
  C  C3  1  0.903514  0.813038  0.568520  1
  C  C4  1  0.886935  0.365773  0.215709  1
  C  C5  1  0.045087  0.721701  0.257269  1
  C  C6  1  0.176205  0.910082  0.947237  1
  C  C7  1  0.080651  0.228334  0.449993  1
