# generated using pymatgen
data_C
_symmetry_space_group_name_H-M   'P 1'
_cell_length_a   3.66271336
_cell_length_b   3.98645209
_cell_length_c   4.84203466
_cell_angle_alpha   102.63178828
_cell_angle_beta   102.24317391
_cell_angle_gamma   102.00647634
_symmetry_Int_Tables_number   1
_chemical_formula_structural   C
_chemical_formula_sum   C8
_cell_volume   64.97603064
_cell_formula_units_Z   8
loop_
 _symmetry_equiv_pos_site_id
 _symmetry_equiv_pos_as_xyz
  1  'x, y, z'
loop_
 _atom_site_type_symbol
 _atom_site_label
 _atom_site_symmetry_multiplicity
 _atom_site_fract_x
 _atom_site_fract_y
 _atom_site_fract_z
 _atom_site_occupancy
  C  C1  1  0.057293  0.584651  0.623080  1
  C  C2  1  0.943915  0.220699  0.624625  1
  C  C3  1  0.790521  0.949889  0.359909  1
  C  C4  1  0.949552  0.657480  0.353003  1
  C  C5  1  0.587837  -0.017137  0.101683  1
  C  C6  1  0.986179  0.157569  0.923029  1
  C  C7  1  0.038992  0.528547  0.100686  1
  C  C8  1  0.173974  0.846070  0.930872  1
