data_image0
_cell_length_a       3.77852
_cell_length_b       3.84111
_cell_length_c       5.33352
_cell_angle_alpha    61.0854
_cell_angle_beta     61.9531
_cell_angle_gamma    59.2874

_symmetry_space_group_name_H-M    "P 1"
_symmetry_int_tables_number       1

loop_
  _symmetry_equiv_pos_as_xyz
  'x, y, z'

loop_
  _atom_site_label
  _atom_site_occupancy
  _atom_site_fract_x
  _atom_site_fract_y
  _atom_site_fract_z
  _atom_site_thermal_displace_type
  _atom_site_B_iso_or_equiv
  _atom_site_type_symbol
  C1       1.0000 0.76727  0.83867  0.27958  Biso   1.000  C
  C2       1.0000 0.18037  0.60264  0.08565  Biso   1.000  C
  C3       1.0000 0.34565  0.77807  0.75740  Biso   1.000  C
  C4       1.0000 0.03019  0.06361  0.57011  Biso   1.000  C
  C5       1.0000 0.73397  0.49754  0.58930  Biso   1.000  C
  C6       1.0000 0.34213  0.18270  0.25320  Biso   1.000  C
  C7       1.0000 0.78115  0.86578  0.56232  Biso   1.000  C
