# generated using pymatgen
data_C
_symmetry_space_group_name_H-M   'P 1'
_cell_length_a   3.88866235
_cell_length_b   3.59220857
_cell_length_c   4.61814686
_cell_angle_alpha   76.48957604
_cell_angle_beta   77.83072291
_cell_angle_gamma   60.67856968
_symmetry_Int_Tables_number   1
_chemical_formula_structural   C
_chemical_formula_sum   C7
_cell_volume   54.33455514
_cell_formula_units_Z   7
loop_
 _symmetry_equiv_pos_site_id
 _symmetry_equiv_pos_as_xyz
  1  'x, y, z'
loop_
 _atom_site_type_symbol
 _atom_site_label
 _atom_site_symmetry_multiplicity
 _atom_site_fract_x
 _atom_site_fract_y
 _atom_site_fract_z
 _atom_site_occupancy
  C  C1  1  0.752841  0.908955  0.210620  1
  C  C2  1  0.125928  0.594006  0.069173  1
  C  C3  1  0.332716  0.712308  0.797460  1
  C  C4  1  0.063276  0.055433  0.572970  1
  C  C5  1  0.735488  0.535428  0.691238  1
  C  C6  1  0.326175  0.181896  0.241073  1
  C  C7  1  0.844300  0.840980  0.515026  1
