# generated using pymatgen
data_C
_symmetry_space_group_name_H-M   'P 1'
_cell_length_a   2.54226357
_cell_length_b   3.21787093
_cell_length_c   4.37699595
_cell_angle_alpha   92.11840631
_cell_angle_beta   95.05405355
_cell_angle_gamma   98.05029120
_symmetry_Int_Tables_number   1
_chemical_formula_structural   C
_chemical_formula_sum   C5
_cell_volume   35.27193558
_cell_formula_units_Z   5
loop_
 _symmetry_equiv_pos_site_id
 _symmetry_equiv_pos_as_xyz
  1  'x, y, z'
loop_
 _atom_site_type_symbol
 _atom_site_label
 _atom_site_symmetry_multiplicity
 _atom_site_fract_x
 _atom_site_fract_y
 _atom_site_fract_z
 _atom_site_occupancy
  C  C1  1  0.491764  0.382512  0.779168  1
  C  C2  1  0.624671  0.719942  0.624713  1
  C  C3  1  0.571711  0.223445  0.072894  1
  C  C4  1  0.082133  0.126564  0.220035  1
  C  C5  1  0.165892  0.971165  0.550367  1
