data_image0
_cell_length_a       3.57806
_cell_length_b       3.85587
_cell_length_c       4.03962
_cell_angle_alpha    92.8307
_cell_angle_beta     104.376
_cell_angle_gamma    97.902

_symmetry_space_group_name_H-M    "P 1"
_symmetry_int_tables_number       1

loop_
  _symmetry_equiv_pos_as_xyz
  'x, y, z'

loop_
  _atom_site_label
  _atom_site_occupancy
  _atom_site_fract_x
  _atom_site_fract_y
  _atom_site_fract_z
  _atom_site_thermal_displace_type
  _atom_site_B_iso_or_equiv
  _atom_site_type_symbol
  C1       1.0000 0.99379  0.12369  0.54903  Biso   1.000  C
  C2       1.0000 0.65644  0.88647  0.40555  Biso   1.000  C
  C3       1.0000 0.43607  0.59811  0.85833  Biso   1.000  C
  C4       1.0000 0.48871  0.91605  0.04619  Biso   1.000  C
  C5       1.0000 0.43132  0.60302  0.51184  Biso   1.000  C
  C6       1.0000 0.16950  0.32028  0.30930  Biso   1.000  C
  C7       1.0000 0.26388  0.23151  0.94313  Biso   1.000  C
