# generated using pymatgen
data_C
_symmetry_space_group_name_H-M   'P 1'
_cell_length_a   2.48500696
_cell_length_b   3.49081871
_cell_length_c   5.82759243
_cell_angle_alpha   85.77765544
_cell_angle_beta   77.89380379
_cell_angle_gamma   69.44956658
_symmetry_Int_Tables_number   1
_chemical_formula_structural   C
_chemical_formula_sum   C6
_cell_volume   46.28295677
_cell_formula_units_Z   6
loop_
 _symmetry_equiv_pos_site_id
 _symmetry_equiv_pos_as_xyz
  1  'x, y, z'
loop_
 _atom_site_type_symbol
 _atom_site_label
 _atom_site_symmetry_multiplicity
 _atom_site_fract_x
 _atom_site_fract_y
 _atom_site_fract_z
 _atom_site_occupancy
  C  C1  1  0.303552  0.094447  0.292570  1
  C  C2  1  0.865586  0.094450  0.166844  1
  C  C3  1  0.983641  0.094464  0.930912  1
  C  C4  1  0.185495  0.094433  0.528500  1
  C  C5  1  0.277040  0.710464  0.729708  1
  C  C6  1  0.892097  0.478431  0.729706  1
