# generated using pymatgen
data_C
_symmetry_space_group_name_H-M   'P 1'
_cell_length_a   3.18175964
_cell_length_b   3.57327105
_cell_length_c   4.11260095
_cell_angle_alpha   64.97976908
_cell_angle_beta   82.64179355
_cell_angle_gamma   72.53563584
_symmetry_Int_Tables_number   1
_chemical_formula_structural   C
_chemical_formula_sum   C5
_cell_volume   40.41645975
_cell_formula_units_Z   5
loop_
 _symmetry_equiv_pos_site_id
 _symmetry_equiv_pos_as_xyz
  1  'x, y, z'
loop_
 _atom_site_type_symbol
 _atom_site_label
 _atom_site_symmetry_multiplicity
 _atom_site_fract_x
 _atom_site_fract_y
 _atom_site_fract_z
 _atom_site_occupancy
  C  C1  1  0.472580  0.213803  -0.013717  1
  C  C2  1  0.719340  0.474958  -0.012157  1
  C  C3  1  0.096204  0.238937  0.198049  1
  C  C4  1  0.097102  0.054828  0.557692  1
  C  C5  1  0.598838  0.944105  0.780980  1
