data_image0
_cell_length_a       2.63017
_cell_length_b       3.70743
_cell_length_c       4.55972
_cell_angle_alpha    66.0575
_cell_angle_beta     82.3702
_cell_angle_gamma    70.908

_symmetry_space_group_name_H-M    "P 1"
_symmetry_int_tables_number       1

loop_
  _symmetry_equiv_pos_as_xyz
  'x, y, z'

loop_
  _atom_site_label
  _atom_site_occupancy
  _atom_site_fract_x
  _atom_site_fract_y
  _atom_site_fract_z
  _atom_site_thermal_displace_type
  _atom_site_B_iso_or_equiv
  _atom_site_type_symbol
  C1       1.0000 0.40380  0.24562  0.95553  Biso   1.000  C
  C2       1.0000 0.78982  0.47178  0.95554  Biso   1.000  C
  C3       1.0000 0.09676  0.21003  0.25315  Biso   1.000  C
  C4       1.0000 0.09682  0.04928  0.57389  Biso   1.000  C
  C5       1.0000 0.59687  0.94993  0.77272  Biso   1.000  C
