# generated using pymatgen
data_C
_symmetry_space_group_name_H-M   'P 1'
_cell_length_a   2.48999675
_cell_length_b   2.78513023
_cell_length_c   7.83490136
_cell_angle_alpha   80.52718544
_cell_angle_beta   90.00000000
_cell_angle_gamma   116.55240804
_symmetry_Int_Tables_number   1
_chemical_formula_structural   C
_chemical_formula_sum   C7
_cell_volume   47.77413831
_cell_formula_units_Z   7
loop_
 _symmetry_equiv_pos_site_id
 _symmetry_equiv_pos_as_xyz
  1  'x, y, z'
loop_
 _atom_site_type_symbol
 _atom_site_label
 _atom_site_symmetry_multiplicity
 _atom_site_fract_x
 _atom_site_fract_y
 _atom_site_fract_z
 _atom_site_occupancy
  C  C1  1  0.569654  0.269741  0.664704  1
  C  C2  1  0.627265  0.384962  0.482993  1
  C  C3  1  0.158143  0.446719  0.392192  1
  C  C4  1  0.512043  0.154519  0.846416  1
  C  C5  1  0.981166  0.092763  -0.062784  1
  C  C6  1  0.903198  0.936828  0.131282  1
  C  C7  1  0.236110  0.602652  0.198126  1
