# generated using pymatgen
data_C
_symmetry_space_group_name_H-M   'P 1'
_cell_length_a   2.51541632
_cell_length_b   3.50871494
_cell_length_c   4.77329816
_cell_angle_alpha   103.50845656
_cell_angle_beta   89.96613645
_cell_angle_gamma   110.95444062
_symmetry_Int_Tables_number   1
_chemical_formula_structural   C
_chemical_formula_sum   C6
_cell_volume   38.09405704
_cell_formula_units_Z   6
loop_
 _symmetry_equiv_pos_site_id
 _symmetry_equiv_pos_as_xyz
  1  'x, y, z'
loop_
 _atom_site_type_symbol
 _atom_site_label
 _atom_site_symmetry_multiplicity
 _atom_site_fract_x
 _atom_site_fract_y
 _atom_site_fract_z
 _atom_site_occupancy
  C  C1  1  0.242001  0.224970  0.772333  1
  C  C2  1  0.814076  0.369221  0.681124  1
  C  C3  1  0.948818  0.638869  0.483708  1
  C  C4  1  0.608723  0.958205  0.139543  1
  C  C5  1  0.215793  0.172923  0.078805  1
  C  C6  1  0.440776  0.622244  0.302392  1
