# generated using pymatgen
data_C
_symmetry_space_group_name_H-M   'P 1'
_cell_length_a   2.61130082
_cell_length_b   4.63327778
_cell_length_c   5.65928325
_cell_angle_alpha   94.43657259
_cell_angle_beta   103.08278865
_cell_angle_gamma   106.32049603
_symmetry_Int_Tables_number   1
_chemical_formula_structural   C
_chemical_formula_sum   C9
_cell_volume   63.27439986
_cell_formula_units_Z   9
loop_
 _symmetry_equiv_pos_site_id
 _symmetry_equiv_pos_as_xyz
  1  'x, y, z'
loop_
 _atom_site_type_symbol
 _atom_site_label
 _atom_site_symmetry_multiplicity
 _atom_site_fract_x
 _atom_site_fract_y
 _atom_site_fract_z
 _atom_site_occupancy
  C  C1  1  0.482007  0.412569  0.976705  1
  C  C2  1  0.272413  0.129774  0.840274  1
  C  C3  1  0.085316  0.008212  0.595551  1
  C  C4  1  0.080118  0.189067  0.404237  1
  C  C5  1  0.872276  0.001301  0.174174  1
  C  C6  1  0.263654  0.897239  0.058412  1
  C  C7  1  0.874940  0.683075  0.501599  1
  C  C8  1  0.111435  0.556040  0.094649  1
  C  C9  1  0.243169  0.528273  0.390490  1
