# generated using pymatgen
data_C
_symmetry_space_group_name_H-M   'P 1'
_cell_length_a   2.67481345
_cell_length_b   4.77212778
_cell_length_c   5.05277320
_cell_angle_alpha   103.98226247
_cell_angle_beta   90.18270309
_cell_angle_gamma   106.04731024
_symmetry_Int_Tables_number   1
_chemical_formula_structural   C
_chemical_formula_sum   C8
_cell_volume   59.97708821
_cell_formula_units_Z   8
loop_
 _symmetry_equiv_pos_site_id
 _symmetry_equiv_pos_as_xyz
  1  'x, y, z'
loop_
 _atom_site_type_symbol
 _atom_site_label
 _atom_site_symmetry_multiplicity
 _atom_site_fract_x
 _atom_site_fract_y
 _atom_site_fract_z
 _atom_site_occupancy
  C  C1  1  0.164081  0.797570  0.635334  1
  C  C2  1  0.931739  0.511211  0.533009  1
  C  C3  1  0.466801  0.094240  0.698084  1
  C  C4  1  0.629021  0.214542  0.470259  1
  C  C5  1  0.586260  0.246205  0.983892  1
  C  C6  1  0.509561  0.062576  0.184451  1
  C  C7  1  0.757369  0.575254  0.065604  1
  C  C8  1  0.338453  0.733528  0.102738  1
