# generated using pymatgen
data_C
_symmetry_space_group_name_H-M   'P 1'
_cell_length_a   2.54276410
_cell_length_b   3.33129082
_cell_length_c   5.94565125
_cell_angle_alpha   90.00000000
_cell_angle_beta   90.00000000
_cell_angle_gamma   82.53985313
_symmetry_Int_Tables_number   1
_chemical_formula_structural   C
_chemical_formula_sum   C8
_cell_volume   49.93744054
_cell_formula_units_Z   8
loop_
 _symmetry_equiv_pos_site_id
 _symmetry_equiv_pos_as_xyz
  1  'x, y, z'
loop_
 _atom_site_type_symbol
 _atom_site_label
 _atom_site_symmetry_multiplicity
 _atom_site_fract_x
 _atom_site_fract_y
 _atom_site_fract_z
 _atom_site_occupancy
  C  C1  1  0.740179  0.627297  0.072556  1
  C  C2  1  0.740179  0.627297  0.306802  1
  C  C3  1  0.471582  0.758889  0.689679  1
  C  C4  1  0.008778  0.495705  0.689679  1
  C  C5  1  0.512101  -0.005158  0.919586  1
  C  C6  1  0.968258  0.259753  0.459771  1
  C  C7  1  0.512101  -0.005158  0.459771  1
  C  C8  1  0.968258  0.259753  0.919586  1
