data_image0
_cell_length_a       2.58587
_cell_length_b       3.28989
_cell_length_c       5.8683
_cell_angle_alpha    90
_cell_angle_beta     90
_cell_angle_gamma    82.22

_symmetry_space_group_name_H-M    "P 1"
_symmetry_int_tables_number       1

loop_
  _symmetry_equiv_pos_as_xyz
  'x, y, z'

loop_
  _atom_site_label
  _atom_site_occupancy
  _atom_site_fract_x
  _atom_site_fract_y
  _atom_site_fract_z
  _atom_site_thermal_displace_type
  _atom_site_B_iso_or_equiv
  _atom_site_type_symbol
  C1       1.0000 0.74018  0.62730  0.07687  Biso   1.000  C
  C2       1.0000 0.74018  0.62730  0.30249  Biso   1.000  C
  C3       1.0000 0.48474  0.76159  0.68968  Biso   1.000  C
  C4       1.0000 0.99562  0.49301  0.68968  Biso   1.000  C
  C5       1.0000 0.51426  0.98896  0.91855  Biso   1.000  C
  C6       1.0000 0.96610  0.26564  0.46081  Biso   1.000  C
  C7       1.0000 0.51426  0.98896  0.46081  Biso   1.000  C
  C8       1.0000 0.96610  0.26564  0.91855  Biso   1.000  C
