# generated using pymatgen
data_C
_symmetry_space_group_name_H-M   'P 1'
_cell_length_a   2.51515460
_cell_length_b   3.46892558
_cell_length_c   6.80109464
_cell_angle_alpha   89.68295590
_cell_angle_beta   93.32201838
_cell_angle_gamma   109.45752499
_symmetry_Int_Tables_number   1
_chemical_formula_structural   C
_chemical_formula_sum   C8
_cell_volume   55.84985501
_cell_formula_units_Z   8
loop_
 _symmetry_equiv_pos_site_id
 _symmetry_equiv_pos_as_xyz
  1  'x, y, z'
loop_
 _atom_site_type_symbol
 _atom_site_label
 _atom_site_symmetry_multiplicity
 _atom_site_fract_x
 _atom_site_fract_y
 _atom_site_fract_z
 _atom_site_occupancy
  C  C1  1  0.813566  0.659750  0.796699  1
  C  C2  1  0.665466  0.272809  0.891740  1
  C  C3  1  0.007615  0.276105  0.058817  1
  C  C4  1  0.912673  -0.008504  0.440111  1
  C  C5  1  0.437693  0.014133  0.541101  1
  C  C6  1  0.799545  0.800257  0.243844  1
  C  C7  1  0.202802  0.610546  0.184460  1
  C  C8  1  0.423551  0.899447  0.757551  1
