data_image0
_cell_length_a       3.77434
_cell_length_b       4.2735
_cell_length_c       4.28041
_cell_angle_alpha    119.947
_cell_angle_beta     97.5326
_cell_angle_gamma    90

_symmetry_space_group_name_H-M    "P 1"
_symmetry_int_tables_number       1

loop_
  _symmetry_equiv_pos_as_xyz
  'x, y, z'

loop_
  _atom_site_label
  _atom_site_occupancy
  _atom_site_fract_x
  _atom_site_fract_y
  _atom_site_fract_z
  _atom_site_thermal_displace_type
  _atom_site_B_iso_or_equiv
  _atom_site_type_symbol
  C1       1.0000 0.75150  0.57393  0.46923  Biso   1.000  C
  C2       1.0000 0.75150  0.25838  0.46923  Biso   1.000  C
  C3       1.0000 0.86461  0.27874  0.82638  Biso   1.000  C
  C4       1.0000 0.86461  0.91072  0.82638  Biso   1.000  C
  C5       1.0000 0.26680  0.00939  0.96928  Biso   1.000  C
  C6       1.0000 0.26680  0.32297  0.96928  Biso   1.000  C
  C7       1.0000 0.61766  0.91553  0.10794  Biso   1.000  C
  C8       1.0000 0.61766  0.55549  0.10795  Biso   1.000  C
