# generated using pymatgen
data_C
_symmetry_space_group_name_H-M   'P 1'
_cell_length_a   3.58971836
_cell_length_b   4.63804261
_cell_length_c   4.36588628
_cell_angle_alpha   122.08444032
_cell_angle_beta   98.74345893
_cell_angle_gamma   90.00000000
_symmetry_Int_Tables_number   1
_chemical_formula_structural   C
_chemical_formula_sum   C8
_cell_volume   60.58745151
_cell_formula_units_Z   8
loop_
 _symmetry_equiv_pos_site_id
 _symmetry_equiv_pos_as_xyz
  1  'x, y, z'
loop_
 _atom_site_type_symbol
 _atom_site_label
 _atom_site_symmetry_multiplicity
 _atom_site_fract_x
 _atom_site_fract_y
 _atom_site_fract_z
 _atom_site_occupancy
  C  C1  1  0.757251  0.570406  0.463077  1
  C  C2  1  0.757251  0.255749  0.463077  1
  C  C3  1  0.880693  0.359108  0.835637  1
  C  C4  1  0.880693  0.839606  0.835637  1
  C  C5  1  0.249918  0.007377  0.962494  1
  C  C6  1  0.249918  0.318193  0.962494  1
  C  C7  1  0.612709  0.912601  0.111630  1
  C  C8  1  0.612709  0.562106  0.111630  1
